version 2
run Scenario_1-0-20190320-09:38:11-8716
attr configname Scenario_1
attr datetime 20190320-09:38:11
attr experiment Scenario_1
attr inifile omnetpp.ini
attr iterationvars "$0=19, $1=true"
attr iterationvarsf 19,true-
attr measurement "$0=19, $1=true"
attr network SingleCell
attr processid 8716
attr repetition 0
attr replication #0
attr resultdir results
attr runnumber 0
attr seedset 0
param **.bufferSize (19s)
param **.channelControl.carrierFrequency 2100e+6Hz
param **.d2d (true)
param **.fbDelay 1
param **.feedbackComputation "xmldoc(\"config_channel.xml\")"
param **.mac.maxBytesPerTti 1KiB
param **.mac.queueSize 1MiB
param **.mac.schedulingDisciplineDl "\"MAXCI\""
param **.mac.schedulingDisciplineUl "\"MAXCI\""
param **.nic.phy.channelModel "xmldoc(\"config_channel.xml\")"
param **.packetInt 4ms
param **.routingRecorder.enabled false
param **.server.udpApp[*].typename "\"UDPVideoStreamServer\""
param **.server.udpApp[0].viewID 1
param **.server.udpApp[1].viewID 2
param **.ue[*].macCellId 1
param **.ue[*].masterId 1
param **.ue[*].udpApp[*].typename "\"UDPVideoStreamClient\""
param **.ue[*].udpApp[0].viewID 1
param **.ue[*].udpApp[1].viewID 2
param **.ue[0].udpApp[0].startTime 2s
param **.ue[0].udpApp[1].startTime 3s
param **.ue[1].udpApp[0].startTime 12s
param **.ue[1].udpApp[1].startTime 13s
param **.ue[2].udpApp[0].startTime 70s
param **.ue[2].udpApp[1].startTime 71s
param *.numUe 3
param *.server.numUdpApps 2
param *.ue[*].mobility.constraintAreaMaxX 486m
param *.ue[*].mobility.constraintAreaMaxY 226m
param *.ue[*].mobility.constraintAreaMinX 457m
param *.ue[*].mobility.constraintAreaMinY 202m
param *.ue[*].mobility.initFromDisplayString false
param *.ue[*].mobility.initialX uniform(457m,486m)
param *.ue[*].mobility.initialY uniform(202m,226m)
param *.ue[*].mobility.initialZ 0
param *.ue[*].mobility.speed 1mps
param *.ue[*].mobilityType "\"LinearMobility\""
param *.ue[*].numUdpApps 2

scalar SingleCell.server.networkLayer.arp 	failedARPResolution:count 	0
attr title  "ARP failed resolutions, count"
scalar SingleCell.server.networkLayer.arp 	completedARPResolution:count 	0
attr title  "ARP completed resolutions, count"
scalar SingleCell.server.networkLayer.arp 	initiatedARPResolution:count 	0
attr title  "ARP initiated resolutions, count"
scalar SingleCell.server.networkLayer.arp 	sentReply:count 	0
attr title  "ARP replies sent, count"
scalar SingleCell.server.networkLayer.arp 	sentReq:count 	0
attr title  "ARP request sent, count"
scalar SingleCell.server.lo0.lo 	droppedPkBitError:count 	0
attr interpolationmode  none
attr source  dropPkBitError
attr title  "packets dropped/bit error, count"
scalar SingleCell.server.lo0.lo 	droppedPkBitError:sum(packetBytes) 	0
attr interpolationmode  none
attr source  dropPkBitError
attr title  "packets dropped/bit error, sum(packetBytes)"
scalar SingleCell.server.lo0.lo 	rcvdPkFromHL:count 	0
attr interpolationmode  none
attr source  packetReceivedFromUpper
attr title  "packets received from higher layer, count"
scalar SingleCell.server.lo0.lo 	rcvdPkFromHL:sum(packetBytes) 	0
attr interpolationmode  none
attr source  packetReceivedFromUpper
attr title  "packets received from higher layer, sum(packetBytes)"
scalar SingleCell.server.lo0.lo 	passedUpPk:count 	0
attr interpolationmode  none
attr source  packetSentToUpper
attr title  "packets passed to higher layer, count"
scalar SingleCell.server.lo0.lo 	passedUpPk:sum(packetBytes) 	0
attr interpolationmode  none
attr source  packetSentToUpper
attr title  "packets passed to higher layer, sum(packetBytes)"
statistic SingleCell.server.ppp[0].queue 	queueingTime:histogram
field count 163348
field mean 1.9918556701041e-07
field stddev 3.7704861939832e-07
field sum 0.032536564000016
field sqrsum 2.9703148240016e-08
field min 0
field max 1.656e-06
attr interpolationmode  none
attr title  "queueing time, histogram"
bin	-INF	0
bin	-0.5	0
bin	-0.46666666666667	0
bin	-0.43333333333333	0
bin	-0.4	0
bin	-0.36666666666667	0
bin	-0.33333333333333	0
bin	-0.3	0
bin	-0.26666666666667	0
bin	-0.23333333333333	0
bin	-0.2	0
bin	-0.16666666666667	0
bin	-0.13333333333333	0
bin	-0.1	0
bin	-0.066666666666667	0
bin	-0.033333333333333	0
bin	0	163348
bin	0.033333333333333	0
bin	0.066666666666667	0
bin	0.1	0
bin	0.13333333333333	0
bin	0.16666666666667	0
bin	0.2	0
bin	0.23333333333333	0
bin	0.26666666666667	0
bin	0.3	0
bin	0.33333333333333	0
bin	0.36666666666667	0
bin	0.4	0
bin	0.43333333333333	0
bin	0.46666666666667	0
bin	0.5	0
scalar SingleCell.server.ppp[0].queue 	dropPk:count 	0
attr interpolationmode  none
attr source  dropPkByQueue
attr title  "dropped packets, count"
scalar SingleCell.server.ppp[0].queue 	dropPk:sum(packetBytes) 	0
attr interpolationmode  none
attr source  dropPkByQueue
attr title  "dropped packets, sum(packetBytes)"
scalar SingleCell.server.ppp[0].queue 	queueLength:max 	2
attr interpolationmode  sample-hold
attr title  "queue length, max"
scalar SingleCell.server.ppp[0].queue 	queueLength:timeavg 	0.00016268282000008
attr interpolationmode  sample-hold
attr title  "queue length, timeavg"
scalar SingleCell.server.ppp[0].queue 	rcvdPk:count 	163348
attr interpolationmode  none
attr title  "received packets, count"
scalar SingleCell.server.ppp[0].queue 	rcvdPk:sum(packetBytes) 	167921744
attr interpolationmode  none
attr title  "received packets, sum(packetBytes)"
scalar SingleCell.server.ppp[0].ppp 	txState:timeavg 	0.00067626071999874
attr interpolationmode  sample-hold
attr title  "tx state, timeavg"
scalar SingleCell.server.ppp[0].ppp 	droppedPkIfaceDown:count 	0
attr interpolationmode  none
attr source  dropPkIfaceDown
attr title  "packets dropped/interface down, count"
scalar SingleCell.server.ppp[0].ppp 	droppedPkIfaceDown:sum(packetBytes) 	0
attr interpolationmode  none
attr source  dropPkIfaceDown
attr title  "packets dropped/interface down, sum(packetBytes)"
scalar SingleCell.server.ppp[0].ppp 	droppedPkBitError:count 	0
attr interpolationmode  none
attr source  dropPkBitError
attr title  "packets dropped/bit error, count"
scalar SingleCell.server.ppp[0].ppp 	droppedPkBitError:sum(packetBytes) 	0
attr interpolationmode  none
attr source  dropPkBitError
attr title  "packets dropped/bit error, sum(packetBytes)"
scalar SingleCell.server.ppp[0].ppp 	rxPkOk:count 	165
attr interpolationmode  none
attr source  rxPkOk
attr title  "packets received OK, count"
scalar SingleCell.server.ppp[0].ppp 	rxPkOk:sum(packetBytes) 	6930
attr interpolationmode  none
attr source  rxPkOk
attr title  "packets received OK, sum(packetBytes)"
scalar SingleCell.server.ppp[0].ppp 	txPk:count 	163348
attr interpolationmode  none
attr source  packetSentToLower
attr title  "packets transmitted, count"
scalar SingleCell.server.ppp[0].ppp 	txPk:sum(packetBytes) 	169065180
attr interpolationmode  none
attr source  packetSentToLower
attr title  "packets transmitted, sum(packetBytes)"
scalar SingleCell.server.ppp[0].ppp 	rcvdPkFromHL:count 	163348
attr interpolationmode  none
attr source  packetReceivedFromUpper
attr title  "packets received from higher layer, count"
scalar SingleCell.server.ppp[0].ppp 	rcvdPkFromHL:sum(packetBytes) 	167921744
attr interpolationmode  none
attr source  packetReceivedFromUpper
attr title  "packets received from higher layer, sum(packetBytes)"
scalar SingleCell.server.ppp[0].ppp 	passedUpPk:count 	165
attr interpolationmode  none
attr source  packetSentToUpper
attr title  "packets passed to higher layer, count"
scalar SingleCell.server.ppp[0].ppp 	passedUpPk:sum(packetBytes) 	5775
attr interpolationmode  none
attr source  packetSentToUpper
attr title  "packets passed to higher layer, sum(packetBytes)"
scalar SingleCell.server.udpApp[0] 	reqStreamBytes:count 	83
attr interpolationmode  none
attr title  "requested stream bytes, count"
scalar SingleCell.server.udpApp[0] 	reqStreamBytes:sum 	83000000
attr interpolationmode  none
attr title  "requested stream bytes, sum"
scalar SingleCell.server.udpApp[0] 	sentPk:count 	82292
attr interpolationmode  none
attr source  sentPk
attr title  "packets sent, count"
scalar SingleCell.server.udpApp[0] 	sentPk:sum(packetBytes) 	82292000
attr interpolationmode  none
attr source  sentPk
attr title  "packets sent, sum(packetBytes)"
scalar SingleCell.server.udpApp[1] 	reqStreamBytes:count 	82
attr interpolationmode  none
attr title  "requested stream bytes, count"
scalar SingleCell.server.udpApp[1] 	reqStreamBytes:sum 	82000000
attr interpolationmode  none
attr title  "requested stream bytes, sum"
scalar SingleCell.server.udpApp[1] 	sentPk:count 	81056
attr interpolationmode  none
attr source  sentPk
attr title  "packets sent, count"
scalar SingleCell.server.udpApp[1] 	sentPk:sum(packetBytes) 	81056000
attr interpolationmode  none
attr source  sentPk
attr title  "packets sent, sum(packetBytes)"
scalar SingleCell.server.udp 	droppedPkBadChecksum:count 	0
attr interpolationmode  none
attr title  "packets dropped (checksum error), count"
scalar SingleCell.server.udp 	droppedPkWrongPort:count 	0
attr interpolationmode  none
attr title  "packets dropped (wrong port), count"
scalar SingleCell.server.udp 	passedUpPk:count 	165
attr interpolationmode  none
attr title  "packets passed up, count"
scalar SingleCell.server.udp 	rcvdPk:count 	165
attr interpolationmode  none
attr source  rcvdPk
attr title  "packets received, count"
scalar SingleCell.server.udp 	rcvdPk:sum(packetBytes) 	2475
attr interpolationmode  none
attr source  rcvdPk
attr title  "packets received, sum(packetBytes)"
scalar SingleCell.server.udp 	sentPk:count 	163348
attr interpolationmode  none
attr source  sentPk
attr title  "packets sent, count"
scalar SingleCell.server.udp 	sentPk:sum(packetBytes) 	164654784
attr interpolationmode  none
attr source  sentPk
attr title  "packets sent, sum(packetBytes)"
scalar SingleCell.router.networkLayer.arp 	failedARPResolution:count 	0
attr title  "ARP failed resolutions, count"
scalar SingleCell.router.networkLayer.arp 	completedARPResolution:count 	0
attr title  "ARP completed resolutions, count"
scalar SingleCell.router.networkLayer.arp 	initiatedARPResolution:count 	0
attr title  "ARP initiated resolutions, count"
scalar SingleCell.router.networkLayer.arp 	sentReply:count 	0
attr title  "ARP replies sent, count"
scalar SingleCell.router.networkLayer.arp 	sentReq:count 	0
attr title  "ARP request sent, count"
scalar SingleCell.router.lo0.lo 	droppedPkBitError:count 	0
attr interpolationmode  none
attr source  dropPkBitError
attr title  "packets dropped/bit error, count"
scalar SingleCell.router.lo0.lo 	droppedPkBitError:sum(packetBytes) 	0
attr interpolationmode  none
attr source  dropPkBitError
attr title  "packets dropped/bit error, sum(packetBytes)"
scalar SingleCell.router.lo0.lo 	rcvdPkFromHL:count 	0
attr interpolationmode  none
attr source  packetReceivedFromUpper
attr title  "packets received from higher layer, count"
scalar SingleCell.router.lo0.lo 	rcvdPkFromHL:sum(packetBytes) 	0
attr interpolationmode  none
attr source  packetReceivedFromUpper
attr title  "packets received from higher layer, sum(packetBytes)"
scalar SingleCell.router.lo0.lo 	passedUpPk:count 	0
attr interpolationmode  none
attr source  packetSentToUpper
attr title  "packets passed to higher layer, count"
scalar SingleCell.router.lo0.lo 	passedUpPk:sum(packetBytes) 	0
attr interpolationmode  none
attr source  packetSentToUpper
attr title  "packets passed to higher layer, sum(packetBytes)"
statistic SingleCell.router.ppp[0].queue 	queueingTime:histogram
field count 165
field mean 0
field stddev 0
field sum 0
field sqrsum 0
field min 0
field max 0
attr interpolationmode  none
attr title  "queueing time, histogram"
bin	-INF	0
bin	-0.5	0
bin	-0.46666666666667	0
bin	-0.43333333333333	0
bin	-0.4	0
bin	-0.36666666666667	0
bin	-0.33333333333333	0
bin	-0.3	0
bin	-0.26666666666667	0
bin	-0.23333333333333	0
bin	-0.2	0
bin	-0.16666666666667	0
bin	-0.13333333333333	0
bin	-0.1	0
bin	-0.066666666666667	0
bin	-0.033333333333333	0
bin	0	165
bin	0.033333333333333	0
bin	0.066666666666667	0
bin	0.1	0
bin	0.13333333333333	0
bin	0.16666666666667	0
bin	0.2	0
bin	0.23333333333333	0
bin	0.26666666666667	0
bin	0.3	0
bin	0.33333333333333	0
bin	0.36666666666667	0
bin	0.4	0
bin	0.43333333333333	0
bin	0.46666666666667	0
bin	0.5	0
scalar SingleCell.router.ppp[0].queue 	dropPk:count 	0
attr interpolationmode  none
attr source  dropPkByQueue
attr title  "dropped packets, count"
scalar SingleCell.router.ppp[0].queue 	dropPk:sum(packetBytes) 	0
attr interpolationmode  none
attr source  dropPkByQueue
attr title  "dropped packets, sum(packetBytes)"
scalar SingleCell.router.ppp[0].queue 	queueLength:max 	0
attr interpolationmode  sample-hold
attr title  "queue length, max"
scalar SingleCell.router.ppp[0].queue 	queueLength:timeavg 	0
attr interpolationmode  sample-hold
attr title  "queue length, timeavg"
scalar SingleCell.router.ppp[0].queue 	rcvdPk:count 	165
attr interpolationmode  none
attr title  "received packets, count"
scalar SingleCell.router.ppp[0].queue 	rcvdPk:sum(packetBytes) 	5775
attr interpolationmode  none
attr title  "received packets, sum(packetBytes)"
scalar SingleCell.router.ppp[0].ppp 	txState:timeavg 	2.772e-08
attr interpolationmode  sample-hold
attr title  "tx state, timeavg"
scalar SingleCell.router.ppp[0].ppp 	droppedPkIfaceDown:count 	0
attr interpolationmode  none
attr source  dropPkIfaceDown
attr title  "packets dropped/interface down, count"
scalar SingleCell.router.ppp[0].ppp 	droppedPkIfaceDown:sum(packetBytes) 	0
attr interpolationmode  none
attr source  dropPkIfaceDown
attr title  "packets dropped/interface down, sum(packetBytes)"
scalar SingleCell.router.ppp[0].ppp 	droppedPkBitError:count 	0
attr interpolationmode  none
attr source  dropPkBitError
attr title  "packets dropped/bit error, count"
scalar SingleCell.router.ppp[0].ppp 	droppedPkBitError:sum(packetBytes) 	0
attr interpolationmode  none
attr source  dropPkBitError
attr title  "packets dropped/bit error, sum(packetBytes)"
scalar SingleCell.router.ppp[0].ppp 	rxPkOk:count 	163348
attr interpolationmode  none
attr source  rxPkOk
attr title  "packets received OK, count"
scalar SingleCell.router.ppp[0].ppp 	rxPkOk:sum(packetBytes) 	169065180
attr interpolationmode  none
attr source  rxPkOk
attr title  "packets received OK, sum(packetBytes)"
scalar SingleCell.router.ppp[0].ppp 	txPk:count 	165
attr interpolationmode  none
attr source  packetSentToLower
attr title  "packets transmitted, count"
scalar SingleCell.router.ppp[0].ppp 	txPk:sum(packetBytes) 	6930
attr interpolationmode  none
attr source  packetSentToLower
attr title  "packets transmitted, sum(packetBytes)"
scalar SingleCell.router.ppp[0].ppp 	rcvdPkFromHL:count 	165
attr interpolationmode  none
attr source  packetReceivedFromUpper
attr title  "packets received from higher layer, count"
scalar SingleCell.router.ppp[0].ppp 	rcvdPkFromHL:sum(packetBytes) 	5775
attr interpolationmode  none
attr source  packetReceivedFromUpper
attr title  "packets received from higher layer, sum(packetBytes)"
scalar SingleCell.router.ppp[0].ppp 	passedUpPk:count 	163348
attr interpolationmode  none
attr source  packetSentToUpper
attr title  "packets passed to higher layer, count"
scalar SingleCell.router.ppp[0].ppp 	passedUpPk:sum(packetBytes) 	167921744
attr interpolationmode  none
attr source  packetSentToUpper
attr title  "packets passed to higher layer, sum(packetBytes)"
statistic SingleCell.router.ppp[1].queue 	queueingTime:histogram
field count 163348
field mean 0
field stddev 0
field sum 0
field sqrsum 0
field min 0
field max 0
attr interpolationmode  none
attr title  "queueing time, histogram"
bin	-INF	0
bin	-0.5	0
bin	-0.46666666666667	0
bin	-0.43333333333333	0
bin	-0.4	0
bin	-0.36666666666667	0
bin	-0.33333333333333	0
bin	-0.3	0
bin	-0.26666666666667	0
bin	-0.23333333333333	0
bin	-0.2	0
bin	-0.16666666666667	0
bin	-0.13333333333333	0
bin	-0.1	0
bin	-0.066666666666667	0
bin	-0.033333333333333	0
bin	0	163348
bin	0.033333333333333	0
bin	0.066666666666667	0
bin	0.1	0
bin	0.13333333333333	0
bin	0.16666666666667	0
bin	0.2	0
bin	0.23333333333333	0
bin	0.26666666666667	0
bin	0.3	0
bin	0.33333333333333	0
bin	0.36666666666667	0
bin	0.4	0
bin	0.43333333333333	0
bin	0.46666666666667	0
bin	0.5	0
scalar SingleCell.router.ppp[1].queue 	dropPk:count 	0
attr interpolationmode  none
attr source  dropPkByQueue
attr title  "dropped packets, count"
scalar SingleCell.router.ppp[1].queue 	dropPk:sum(packetBytes) 	0
attr interpolationmode  none
attr source  dropPkByQueue
attr title  "dropped packets, sum(packetBytes)"
scalar SingleCell.router.ppp[1].queue 	queueLength:max 	0
attr interpolationmode  sample-hold
attr title  "queue length, max"
scalar SingleCell.router.ppp[1].queue 	queueLength:timeavg 	0
attr interpolationmode  sample-hold
attr title  "queue length, timeavg"
scalar SingleCell.router.ppp[1].queue 	rcvdPk:count 	163348
attr interpolationmode  none
attr title  "received packets, count"
scalar SingleCell.router.ppp[1].queue 	rcvdPk:sum(packetBytes) 	167921744
attr interpolationmode  none
attr title  "received packets, sum(packetBytes)"
scalar SingleCell.router.ppp[1].ppp 	txState:timeavg 	0.00067626071999874
attr interpolationmode  sample-hold
attr title  "tx state, timeavg"
scalar SingleCell.router.ppp[1].ppp 	droppedPkIfaceDown:count 	0
attr interpolationmode  none
attr source  dropPkIfaceDown
attr title  "packets dropped/interface down, count"
scalar SingleCell.router.ppp[1].ppp 	droppedPkIfaceDown:sum(packetBytes) 	0
attr interpolationmode  none
attr source  dropPkIfaceDown
attr title  "packets dropped/interface down, sum(packetBytes)"
scalar SingleCell.router.ppp[1].ppp 	droppedPkBitError:count 	0
attr interpolationmode  none
attr source  dropPkBitError
attr title  "packets dropped/bit error, count"
scalar SingleCell.router.ppp[1].ppp 	droppedPkBitError:sum(packetBytes) 	0
attr interpolationmode  none
attr source  dropPkBitError
attr title  "packets dropped/bit error, sum(packetBytes)"
scalar SingleCell.router.ppp[1].ppp 	rxPkOk:count 	165
attr interpolationmode  none
attr source  rxPkOk
attr title  "packets received OK, count"
scalar SingleCell.router.ppp[1].ppp 	rxPkOk:sum(packetBytes) 	6930
attr interpolationmode  none
attr source  rxPkOk
attr title  "packets received OK, sum(packetBytes)"
scalar SingleCell.router.ppp[1].ppp 	txPk:count 	163348
attr interpolationmode  none
attr source  packetSentToLower
attr title  "packets transmitted, count"
scalar SingleCell.router.ppp[1].ppp 	txPk:sum(packetBytes) 	169065180
attr interpolationmode  none
attr source  packetSentToLower
attr title  "packets transmitted, sum(packetBytes)"
scalar SingleCell.router.ppp[1].ppp 	rcvdPkFromHL:count 	163348
attr interpolationmode  none
attr source  packetReceivedFromUpper
attr title  "packets received from higher layer, count"
scalar SingleCell.router.ppp[1].ppp 	rcvdPkFromHL:sum(packetBytes) 	167921744
attr interpolationmode  none
attr source  packetReceivedFromUpper
attr title  "packets received from higher layer, sum(packetBytes)"
scalar SingleCell.router.ppp[1].ppp 	passedUpPk:count 	165
attr interpolationmode  none
attr source  packetSentToUpper
attr title  "packets passed to higher layer, count"
scalar SingleCell.router.ppp[1].ppp 	passedUpPk:sum(packetBytes) 	5775
attr interpolationmode  none
attr source  packetSentToUpper
attr title  "packets passed to higher layer, sum(packetBytes)"
scalar SingleCell.pgw.networkLayer.arp 	failedARPResolution:count 	0
attr title  "ARP failed resolutions, count"
scalar SingleCell.pgw.networkLayer.arp 	completedARPResolution:count 	0
attr title  "ARP completed resolutions, count"
scalar SingleCell.pgw.networkLayer.arp 	initiatedARPResolution:count 	0
attr title  "ARP initiated resolutions, count"
scalar SingleCell.pgw.networkLayer.arp 	sentReply:count 	0
attr title  "ARP replies sent, count"
scalar SingleCell.pgw.networkLayer.arp 	sentReq:count 	0
attr title  "ARP request sent, count"
scalar SingleCell.pgw.lo0.lo 	droppedPkBitError:count 	0
attr interpolationmode  none
attr source  dropPkBitError
attr title  "packets dropped/bit error, count"
scalar SingleCell.pgw.lo0.lo 	droppedPkBitError:sum(packetBytes) 	0
attr interpolationmode  none
attr source  dropPkBitError
attr title  "packets dropped/bit error, sum(packetBytes)"
scalar SingleCell.pgw.lo0.lo 	rcvdPkFromHL:count 	0
attr interpolationmode  none
attr source  packetReceivedFromUpper
attr title  "packets received from higher layer, count"
scalar SingleCell.pgw.lo0.lo 	rcvdPkFromHL:sum(packetBytes) 	0
attr interpolationmode  none
attr source  packetReceivedFromUpper
attr title  "packets received from higher layer, sum(packetBytes)"
scalar SingleCell.pgw.lo0.lo 	passedUpPk:count 	0
attr interpolationmode  none
attr source  packetSentToUpper
attr title  "packets passed to higher layer, count"
scalar SingleCell.pgw.lo0.lo 	passedUpPk:sum(packetBytes) 	0
attr interpolationmode  none
attr source  packetSentToUpper
attr title  "packets passed to higher layer, sum(packetBytes)"
statistic SingleCell.pgw.ppp[0].queue 	queueingTime:histogram
field count 163348
field mean 5.3978695790619e-09
field stddev 1.0225479875756e-08
field sum 0.00088173120000061
field sqrsum 2.1839104000005e-11
field min 0
field max 4.48e-08
attr interpolationmode  none
attr title  "queueing time, histogram"
bin	-INF	0
bin	-0.5	0
bin	-0.46666666666667	0
bin	-0.43333333333333	0
bin	-0.4	0
bin	-0.36666666666667	0
bin	-0.33333333333333	0
bin	-0.3	0
bin	-0.26666666666667	0
bin	-0.23333333333333	0
bin	-0.2	0
bin	-0.16666666666667	0
bin	-0.13333333333333	0
bin	-0.1	0
bin	-0.066666666666667	0
bin	-0.033333333333333	0
bin	0	163348
bin	0.033333333333333	0
bin	0.066666666666667	0
bin	0.1	0
bin	0.13333333333333	0
bin	0.16666666666667	0
bin	0.2	0
bin	0.23333333333333	0
bin	0.26666666666667	0
bin	0.3	0
bin	0.33333333333333	0
bin	0.36666666666667	0
bin	0.4	0
bin	0.43333333333333	0
bin	0.46666666666667	0
bin	0.5	0
scalar SingleCell.pgw.ppp[0].queue 	dropPk:count 	0
attr interpolationmode  none
attr source  dropPkByQueue
attr title  "dropped packets, count"
scalar SingleCell.pgw.ppp[0].queue 	dropPk:sum(packetBytes) 	0
attr interpolationmode  none
attr source  dropPkByQueue
attr title  "dropped packets, sum(packetBytes)"
scalar SingleCell.pgw.ppp[0].queue 	queueLength:max 	1
attr interpolationmode  sample-hold
attr title  "queue length, max"
scalar SingleCell.pgw.ppp[0].queue 	queueLength:timeavg 	4.4086560000031e-06
attr interpolationmode  sample-hold
attr title  "queue length, timeavg"
scalar SingleCell.pgw.ppp[0].queue 	rcvdPk:count 	163348
attr interpolationmode  none
attr title  "received packets, count"
scalar SingleCell.pgw.ppp[0].queue 	rcvdPk:sum(packetBytes) 	172495488
attr interpolationmode  none
attr title  "received packets, sum(packetBytes)"
scalar SingleCell.pgw.ppp[0].ppp 	txState:timeavg 	0.00069455569600117
attr interpolationmode  sample-hold
attr title  "tx state, timeavg"
scalar SingleCell.pgw.ppp[0].ppp 	droppedPkIfaceDown:count 	0
attr interpolationmode  none
attr source  dropPkIfaceDown
attr title  "packets dropped/interface down, count"
scalar SingleCell.pgw.ppp[0].ppp 	droppedPkIfaceDown:sum(packetBytes) 	0
attr interpolationmode  none
attr source  dropPkIfaceDown
attr title  "packets dropped/interface down, sum(packetBytes)"
scalar SingleCell.pgw.ppp[0].ppp 	droppedPkBitError:count 	0
attr interpolationmode  none
attr source  dropPkBitError
attr title  "packets dropped/bit error, count"
scalar SingleCell.pgw.ppp[0].ppp 	droppedPkBitError:sum(packetBytes) 	0
attr interpolationmode  none
attr source  dropPkBitError
attr title  "packets dropped/bit error, sum(packetBytes)"
scalar SingleCell.pgw.ppp[0].ppp 	rxPkOk:count 	165
attr interpolationmode  none
attr source  rxPkOk
attr title  "packets received OK, count"
scalar SingleCell.pgw.ppp[0].ppp 	rxPkOk:sum(packetBytes) 	11550
attr interpolationmode  none
attr source  rxPkOk
attr title  "packets received OK, sum(packetBytes)"
scalar SingleCell.pgw.ppp[0].ppp 	txPk:count 	163348
attr interpolationmode  none
attr source  packetSentToLower
attr title  "packets transmitted, count"
scalar SingleCell.pgw.ppp[0].ppp 	txPk:sum(packetBytes) 	173638924
attr interpolationmode  none
attr source  packetSentToLower
attr title  "packets transmitted, sum(packetBytes)"
scalar SingleCell.pgw.ppp[0].ppp 	rcvdPkFromHL:count 	163348
attr interpolationmode  none
attr source  packetReceivedFromUpper
attr title  "packets received from higher layer, count"
scalar SingleCell.pgw.ppp[0].ppp 	rcvdPkFromHL:sum(packetBytes) 	172495488
attr interpolationmode  none
attr source  packetReceivedFromUpper
attr title  "packets received from higher layer, sum(packetBytes)"
scalar SingleCell.pgw.ppp[0].ppp 	passedUpPk:count 	165
attr interpolationmode  none
attr source  packetSentToUpper
attr title  "packets passed to higher layer, count"
scalar SingleCell.pgw.ppp[0].ppp 	passedUpPk:sum(packetBytes) 	10395
attr interpolationmode  none
attr source  packetSentToUpper
attr title  "packets passed to higher layer, sum(packetBytes)"
statistic SingleCell.pgw.pppInterface.queue 	queueingTime:histogram
field count 165
field mean 0
field stddev 0
field sum 0
field sqrsum 0
field min 0
field max 0
attr interpolationmode  none
attr title  "queueing time, histogram"
bin	-INF	0
bin	-0.5	0
bin	-0.46666666666667	0
bin	-0.43333333333333	0
bin	-0.4	0
bin	-0.36666666666667	0
bin	-0.33333333333333	0
bin	-0.3	0
bin	-0.26666666666667	0
bin	-0.23333333333333	0
bin	-0.2	0
bin	-0.16666666666667	0
bin	-0.13333333333333	0
bin	-0.1	0
bin	-0.066666666666667	0
bin	-0.033333333333333	0
bin	0	165
bin	0.033333333333333	0
bin	0.066666666666667	0
bin	0.1	0
bin	0.13333333333333	0
bin	0.16666666666667	0
bin	0.2	0
bin	0.23333333333333	0
bin	0.26666666666667	0
bin	0.3	0
bin	0.33333333333333	0
bin	0.36666666666667	0
bin	0.4	0
bin	0.43333333333333	0
bin	0.46666666666667	0
bin	0.5	0
scalar SingleCell.pgw.pppInterface.queue 	dropPk:count 	0
attr interpolationmode  none
attr source  dropPkByQueue
attr title  "dropped packets, count"
scalar SingleCell.pgw.pppInterface.queue 	dropPk:sum(packetBytes) 	0
attr interpolationmode  none
attr source  dropPkByQueue
attr title  "dropped packets, sum(packetBytes)"
scalar SingleCell.pgw.pppInterface.queue 	queueLength:max 	0
attr interpolationmode  sample-hold
attr title  "queue length, max"
scalar SingleCell.pgw.pppInterface.queue 	queueLength:timeavg 	0
attr interpolationmode  sample-hold
attr title  "queue length, timeavg"
scalar SingleCell.pgw.pppInterface.queue 	rcvdPk:count 	165
attr interpolationmode  none
attr title  "received packets, count"
scalar SingleCell.pgw.pppInterface.queue 	rcvdPk:sum(packetBytes) 	5775
attr interpolationmode  none
attr title  "received packets, sum(packetBytes)"
scalar SingleCell.pgw.pppInterface.ppp 	txState:timeavg 	2.772e-08
attr interpolationmode  sample-hold
attr title  "tx state, timeavg"
scalar SingleCell.pgw.pppInterface.ppp 	droppedPkIfaceDown:count 	0
attr interpolationmode  none
attr source  dropPkIfaceDown
attr title  "packets dropped/interface down, count"
scalar SingleCell.pgw.pppInterface.ppp 	droppedPkIfaceDown:sum(packetBytes) 	0
attr interpolationmode  none
attr source  dropPkIfaceDown
attr title  "packets dropped/interface down, sum(packetBytes)"
scalar SingleCell.pgw.pppInterface.ppp 	droppedPkBitError:count 	0
attr interpolationmode  none
attr source  dropPkBitError
attr title  "packets dropped/bit error, count"
scalar SingleCell.pgw.pppInterface.ppp 	droppedPkBitError:sum(packetBytes) 	0
attr interpolationmode  none
attr source  dropPkBitError
attr title  "packets dropped/bit error, sum(packetBytes)"
scalar SingleCell.pgw.pppInterface.ppp 	rxPkOk:count 	163348
attr interpolationmode  none
attr source  rxPkOk
attr title  "packets received OK, count"
scalar SingleCell.pgw.pppInterface.ppp 	rxPkOk:sum(packetBytes) 	169065180
attr interpolationmode  none
attr source  rxPkOk
attr title  "packets received OK, sum(packetBytes)"
scalar SingleCell.pgw.pppInterface.ppp 	txPk:count 	165
attr interpolationmode  none
attr source  packetSentToLower
attr title  "packets transmitted, count"
scalar SingleCell.pgw.pppInterface.ppp 	txPk:sum(packetBytes) 	6930
attr interpolationmode  none
attr source  packetSentToLower
attr title  "packets transmitted, sum(packetBytes)"
scalar SingleCell.pgw.pppInterface.ppp 	rcvdPkFromHL:count 	165
attr interpolationmode  none
attr source  packetReceivedFromUpper
attr title  "packets received from higher layer, count"
scalar SingleCell.pgw.pppInterface.ppp 	rcvdPkFromHL:sum(packetBytes) 	5775
attr interpolationmode  none
attr source  packetReceivedFromUpper
attr title  "packets received from higher layer, sum(packetBytes)"
scalar SingleCell.pgw.pppInterface.ppp 	passedUpPk:count 	163348
attr interpolationmode  none
attr source  packetSentToUpper
attr title  "packets passed to higher layer, count"
scalar SingleCell.pgw.pppInterface.ppp 	passedUpPk:sum(packetBytes) 	167921744
attr interpolationmode  none
attr source  packetSentToUpper
attr title  "packets passed to higher layer, sum(packetBytes)"
scalar SingleCell.pgw.udp 	droppedPkBadChecksum:count 	0
attr interpolationmode  none
attr title  "packets dropped (checksum error), count"
scalar SingleCell.pgw.udp 	droppedPkWrongPort:count 	0
attr interpolationmode  none
attr title  "packets dropped (wrong port), count"
scalar SingleCell.pgw.udp 	passedUpPk:count 	165
attr interpolationmode  none
attr title  "packets passed up, count"
scalar SingleCell.pgw.udp 	rcvdPk:count 	165
attr interpolationmode  none
attr source  rcvdPk
attr title  "packets received, count"
scalar SingleCell.pgw.udp 	rcvdPk:sum(packetBytes) 	7095
attr interpolationmode  none
attr source  rcvdPk
attr title  "packets received, sum(packetBytes)"
scalar SingleCell.pgw.udp 	sentPk:count 	163348
attr interpolationmode  none
attr source  sentPk
attr title  "packets sent, count"
scalar SingleCell.pgw.udp 	sentPk:sum(packetBytes) 	169228528
attr interpolationmode  none
attr source  sentPk
attr title  "packets sent, sum(packetBytes)"
scalar SingleCell.eNodeB.nic.pdcpRrc 	sentPacketToLowerLayer:count 	163440
attr interpolationmode  none
attr source  sentPacketToLowerLayer
scalar SingleCell.eNodeB.nic.pdcpRrc 	sentPacketToLowerLayer:sum(packetBytes) 	168088404
attr interpolationmode  none
attr source  sentPacketToLowerLayer
scalar SingleCell.eNodeB.nic.pdcpRrc 	sentPacketToUpperLayer:count 	257
attr interpolationmode  none
attr source  sentPacketToUpperLayer
scalar SingleCell.eNodeB.nic.pdcpRrc 	sentPacketToUpperLayer:sum(packetBytes) 	8995
attr interpolationmode  none
attr source  sentPacketToUpperLayer
scalar SingleCell.eNodeB.nic.pdcpRrc 	receivedPacketFromLowerLayer:count 	257
attr interpolationmode  none
attr source  receivedPacketFromLowerLayer
scalar SingleCell.eNodeB.nic.pdcpRrc 	receivedPacketFromLowerLayer:sum(packetBytes) 	9252
attr interpolationmode  none
attr source  receivedPacketFromLowerLayer
scalar SingleCell.eNodeB.nic.pdcpRrc 	receivedPacketFromUpperLayer:count 	163440
attr interpolationmode  none
attr source  receivedPacketFromUpperLayer
scalar SingleCell.eNodeB.nic.pdcpRrc 	receivedPacketFromUpperLayer:sum(packetBytes) 	167924964
attr interpolationmode  none
attr source  receivedPacketFromUpperLayer
scalar SingleCell.eNodeB.nic.rlc.um 	rlcCellPacketLossUl:lteAvg 	0
attr source  rlcCellPacketLossUl
attr title  "rlc Cell Packet Loss, lteAvg"
attr unit  ""
scalar SingleCell.eNodeB.nic.rlc.um 	rlcCellPacketLossDl:lteAvg 	0.66563282541449
attr source  rlcCellPacketLossDl
attr title  "rlc Cell Packet Loss, lteAvg"
attr unit  ""
scalar SingleCell.eNodeB.nic.rlc.um 	rlcCellThroughputDl:lteRate 	848966.28566522
attr source  rlcCellThroughputDl
attr title  "Cell Throughput at the rlc layer DL, lteRate"
attr unit  Bps
scalar SingleCell.eNodeB.nic.rlc.um 	rlcCellThroughputUl:lteRate 	46.729160774173
attr source  rlcCellThroughputUl
attr title  "Cell Throughput at the rlc layer UL, lteRate"
attr unit  Bps
scalar SingleCell.eNodeB.nic.mac 	cqiDlMuMimo0:lteAvg 	12.215725685486
attr source  cqiDlMuMimo0
attr title  "Average cqi MuMimo band 0, lteAvg"
attr unit  cqi
scalar SingleCell.eNodeB.nic.mac 	cqiDlMuMimo0:lteAvg 	12.088888222236
attr source  cqiDlMuMimo0
attr title  "Average cqi MuMimo band 0, lteAvg"
attr unit  cqi
scalar SingleCell.eNodeB.nic.mac 	cqiDlMuMimo0:lteAvg 	10.672616547669
attr source  cqiDlMuMimo0
attr title  "Average cqi MuMimo band 0, lteAvg"
attr unit  cqi
scalar SingleCell.eNodeB.nic.mac 	cqiDlTxDiv0:lteAvg 	14.956020879582
attr source  cqiDlTxDiv0
attr title  "Average cqi TxDiv band 0, lteAvg"
attr unit  cqi
scalar SingleCell.eNodeB.nic.mac 	cqiDlTxDiv0:lteAvg 	14.904391912162
attr source  cqiDlTxDiv0
attr title  "Average cqi TxDiv band 0, lteAvg"
attr unit  cqi
scalar SingleCell.eNodeB.nic.mac 	cqiDlTxDiv0:lteAvg 	14.947201055979
attr source  cqiDlTxDiv0
attr title  "Average cqi TxDiv band 0, lteAvg"
attr unit  cqi
scalar SingleCell.eNodeB.nic.mac 	cqiDlSpmux0:lteAvg 	9.9803503929921
attr source  cqiDlSpmux0
attr title  "Average cqi Spmux band 0, lteAvg"
attr unit  cqi
scalar SingleCell.eNodeB.nic.mac 	cqiDlSpmux0:lteAvg 	10.484880302394
attr source  cqiDlSpmux0
attr title  "Average cqi Spmux band 0, lteAvg"
attr unit  cqi
scalar SingleCell.eNodeB.nic.mac 	cqiDlSpmux0:lteAvg 	8.6552768944621
attr source  cqiDlSpmux0
attr title  "Average cqi Spmux band 0, lteAvg"
attr unit  cqi
scalar SingleCell.eNodeB.nic.mac 	cqiDlSiso0:lteAvg 	12.215725685486
attr source  cqiDlSiso0
attr title  "Average cqi siso band 0, lteAvg"
attr unit  cqi
scalar SingleCell.eNodeB.nic.mac 	cqiDlSiso0:lteAvg 	12.088888222236
attr source  cqiDlSiso0
attr title  "Average cqi siso band 0, lteAvg"
attr unit  cqi
scalar SingleCell.eNodeB.nic.mac 	cqiDlSiso0:lteAvg 	10.672616547669
attr source  cqiDlSiso0
attr title  "Average cqi siso band 0, lteAvg"
attr unit  cqi
scalar SingleCell.eNodeB.nic.mac 	depletedPowerUl:lteAvg 	0
attr source  depletedPowerUl
attr title  "LTE ENodeB depleted power Ul, lteAvg"
attr unit  watts
scalar SingleCell.eNodeB.nic.mac 	depletedPowerDl:lteAvg 	297.01035679953
attr source  depletedPowerDl
attr title  "LTE ENodeB depleted power Dl, lteAvg"
attr unit  watts
scalar SingleCell.eNodeB.nic.mac 	avgServedBlocksUl:lteAvg 	0.959935
attr source  avgServedBlocksUl
attr title  "LTE Avg Served Blocks Ul, lteAvg"
attr unit  blocks
scalar SingleCell.eNodeB.nic.mac 	avgServedBlocksDl:lteAvg 	9.84318
attr source  avgServedBlocksDl
attr title  "LTE Avg Served Blocks Dl, lteAvg"
attr unit  blocks
scalar SingleCell.eNodeB.nic.mac 	cellBlocksUtilizationUl:lteAvg 	0.009599349999992
attr source  cellBlocksUtilizationUl
attr title  "LTE Cell Blocks Utilization Ul, lteAvg"
attr unit  blocks
scalar SingleCell.eNodeB.nic.mac 	cellBlocksUtilizationDl:lteAvg 	0.098431800000029
attr source  cellBlocksUtilizationDl
attr title  "LTE Cell Blocks Utilization Dl, lteAvg"
attr unit  blocks
scalar SingleCell.eNodeB.nic.mac 	measuredItbs:mean 	19.81578145895
attr source  measuredItbs
attr title  "TBS index, mean"
attr unit  ""
scalar SingleCell.eNodeB.nic.mac 	harqErrorRate_4th_D2D:mean 	-nan
attr source  harqErrorRate_4th_D2D
attr title  "Harq Error Rate D2D, mean"
attr unit  ""
scalar SingleCell.eNodeB.nic.mac 	harqErrorRate_4th_Dl:mean 	-nan
attr source  harqErrorRate_4th_Dl
attr title  "Harq Error Rate Dl, mean"
attr unit  ""
scalar SingleCell.eNodeB.nic.mac 	harqErrorRate_4th_Ul:mean 	-nan
attr source  harqErrorRate_4th_Ul
attr title  "Harq Error Rate Dl, mean"
attr unit  ""
scalar SingleCell.eNodeB.nic.mac 	harqErrorRate_3rd_D2D:mean 	-nan
attr source  harqErrorRate_3rd_D2D
attr title  "Harq Error Rate D2D, mean"
attr unit  ""
scalar SingleCell.eNodeB.nic.mac 	harqErrorRate_3rd_Dl:mean 	-nan
attr source  harqErrorRate_3rd_Dl
attr title  "Harq Error Rate Dl, mean"
attr unit  ""
scalar SingleCell.eNodeB.nic.mac 	harqErrorRate_3rd_Ul:mean 	-nan
attr source  harqErrorRate_3rd_Ul
attr title  "Harq Error Rate Dl, mean"
attr unit  ""
scalar SingleCell.eNodeB.nic.mac 	harqErrorRate_2nd_D2D:mean 	-nan
attr source  harqErrorRate_2nd_D2D
attr title  "Harq Error Rate D2D, mean"
attr unit  ""
scalar SingleCell.eNodeB.nic.mac 	harqErrorRate_2nd_Dl:mean 	-nan
attr source  harqErrorRate_2nd_Dl
attr title  "Harq Error Rate Dl, mean"
attr unit  ""
scalar SingleCell.eNodeB.nic.mac 	harqErrorRate_2nd_Ul:mean 	-nan
attr source  harqErrorRate_2nd_Ul
attr title  "Harq Error Rate Dl, mean"
attr unit  ""
scalar SingleCell.eNodeB.nic.mac 	harqErrorRate_1st_D2D:mean 	-nan
attr source  harqErrorRate_1st_D2D
attr title  "Harq Error Rate D2D, mean"
attr unit  ""
scalar SingleCell.eNodeB.nic.mac 	harqErrorRate_1st_Dl:mean 	-nan
attr source  harqErrorRate_1st_Dl
attr title  "Harq Error Rate Dl, mean"
attr unit  ""
scalar SingleCell.eNodeB.nic.mac 	harqErrorRate_1st_Ul:mean 	-nan
attr source  harqErrorRate_1st_Ul
attr title  "Harq Error Rate Dl, mean"
attr unit  ""
scalar SingleCell.eNodeB.nic.mac 	harqErrorRateD2D:mean 	-nan
attr source  harqErrorRateD2D
attr title  "Harq Error Rate D2D, mean"
attr unit  ""
scalar SingleCell.eNodeB.nic.mac 	harqErrorRateDl:mean 	-nan
attr source  harqErrorRateDl
attr title  "Harq Error Rate Dl, mean"
attr unit  ""
scalar SingleCell.eNodeB.nic.mac 	harqErrorRateUl:mean 	-nan
attr source  harqErrorRateUl
attr title  "Harq Error Rate Dl, mean"
attr unit  ""
scalar SingleCell.eNodeB.nic.mac 	macPacketLossD2D:mean 	-nan
attr source  macPacketLossD2D
attr title  "Mac Packet Loss D2D, mean"
attr unit  ""
scalar SingleCell.eNodeB.nic.mac 	macPacketLossDl:mean 	-nan
attr source  macPacketLossDl
attr title  "Mac Packet Loss, mean"
attr unit  ""
scalar SingleCell.eNodeB.nic.mac 	macPacketLossUl:mean 	-nan
attr source  macPacketLossUl
attr title  "Mac Packet Loss, mean"
attr unit  ""
scalar SingleCell.eNodeB.nic.mac 	macCellPacketLossD2D:mean 	-nan
attr source  macCellPacketLossD2D
attr title  "Mac Cell Packet Loss D2D, mean"
attr unit  ""
scalar SingleCell.eNodeB.nic.mac 	macCellPacketLossUl:mean 	0
attr source  macCellPacketLossUl
attr title  "Mac Cell Packet Loss, mean"
attr unit  ""
scalar SingleCell.eNodeB.nic.mac 	macCellPacketLossDl:mean 	0
attr source  macCellPacketLossDl
attr title  "Mac Cell Packet Loss, mean"
attr unit  ""
scalar SingleCell.eNodeB.nic.mac 	macCellThroughputDl:lteRate 	852087.13703425
attr source  macCellThroughputDl
attr title  "Cell Throughput at the MAC layer DL, lteRate"
attr unit  Bps
scalar SingleCell.eNodeB.nic.mac 	macCellThroughputUl:lteRate 	69.770495777607
attr source  macCellThroughputUl
attr title  "Cell Throughput at the MAC layer UL, lteRate"
attr unit  Bps
scalar SingleCell.ue[0].nic.mac 	macThroughputUl:lteRate 	24.677764758172
attr source  macThroughputUl
attr title  "Throughput at the MAC layer UL, lteRate"
attr unit  Bps
scalar SingleCell.ue[1].nic.mac 	macThroughputUl:lteRate 	32.373718030554
attr source  macThroughputUl
attr title  "Throughput at the MAC layer UL, lteRate"
attr unit  Bps
scalar SingleCell.ue[2].nic.mac 	macThroughputUl:lteRate 	21.862883869777
attr source  macThroughputUl
attr title  "Throughput at the MAC layer UL, lteRate"
attr unit  Bps
scalar SingleCell.ue[0].nic.mac 	macDelayUl:lteAvg 	0.0040307692307692
attr source  macDelayUl
attr title  "Delay at the MAC layer UL, lteAvg"
attr unit  s
scalar SingleCell.ue[1].nic.mac 	macDelayUl:lteAvg 	0.004103181427343
attr source  macDelayUl
attr title  "Delay at the MAC layer UL, lteAvg"
attr unit  s
scalar SingleCell.ue[2].nic.mac 	macDelayUl:lteAvg 	0.004064
attr source  macDelayUl
attr title  "Delay at the MAC layer UL, lteAvg"
attr unit  s
scalar SingleCell.eNodeB.nic.mac 	sentPacketToLowerLayer:count 	349814
attr interpolationmode  none
attr source  sentPacketToLowerLayer
scalar SingleCell.eNodeB.nic.mac 	sentPacketToLowerLayer:sum(packetBytes) 	168847765
attr interpolationmode  none
attr source  sentPacketToLowerLayer
scalar SingleCell.eNodeB.nic.mac 	sentPacketToUpperLayer:count 	154949
attr interpolationmode  none
attr source  sentPacketToUpperLayer
scalar SingleCell.eNodeB.nic.mac 	sentPacketToUpperLayer:sum(packetBytes) 	10198
attr interpolationmode  none
attr source  sentPacketToUpperLayer
scalar SingleCell.eNodeB.nic.mac 	receivedPacketFromLowerLayer:count 	258123
attr interpolationmode  none
attr source  receivedPacketFromLowerLayer
scalar SingleCell.eNodeB.nic.mac 	receivedPacketFromLowerLayer:sum(packetBytes) 	13972
attr interpolationmode  none
attr source  receivedPacketFromLowerLayer
scalar SingleCell.eNodeB.nic.mac 	receivedPacketFromUpperLayer:count 	317916
attr interpolationmode  none
attr source  receivedPacketFromUpperLayer
scalar SingleCell.eNodeB.nic.mac 	receivedPacketFromUpperLayer:sum(packetBytes) 	336485760
attr interpolationmode  none
attr source  receivedPacketFromUpperLayer
scalar SingleCell.ue[0].nic.mac 	averageCqiUl:lteAvg 	4.5862068965517
attr source  averageCqiUl
attr title  "Average Cqi reported in UL, lteAvg"
attr unit  cqi
scalar SingleCell.ue[1].nic.mac 	averageCqiUl:lteAvg 	2.9949066213922
attr source  averageCqiUl
attr title  "Average Cqi reported in UL, lteAvg"
attr unit  cqi
scalar SingleCell.ue[2].nic.mac 	averageCqiUl:lteAvg 	8.468253968254
attr source  averageCqiUl
attr title  "Average Cqi reported in UL, lteAvg"
attr unit  cqi
statistic SingleCell.eNodeB.pppIf.queue 	queueingTime:histogram
field count 165
field mean 3.3939393939394e-10
field stddev 4.3595940873045e-09
field sum 5.6e-08
field sqrsum 3.136e-15
field min 0
field max 5.6e-08
attr interpolationmode  none
attr title  "queueing time, histogram"
bin	-INF	0
bin	-2.8e-08	0
bin	-2.4266666666667e-08	0
bin	-2.0533333333333e-08	0
bin	-1.68e-08	0
bin	-1.3066666666667e-08	0
bin	-9.3333333333333e-09	0
bin	-5.6e-09	0
bin	-1.8666666666667e-09	164
bin	1.8666666666667e-09	0
bin	5.6e-09	0
bin	9.3333333333333e-09	0
bin	1.3066666666667e-08	0
bin	1.68e-08	0
bin	2.0533333333333e-08	0
bin	2.4266666666667e-08	0
bin	2.8e-08	0
bin	3.1733333333333e-08	0
bin	3.5466666666667e-08	0
bin	3.92e-08	0
bin	4.2933333333333e-08	0
bin	4.6666666666667e-08	0
bin	5.04e-08	0
bin	5.4133333333333e-08	1
bin	5.7866666666667e-08	0
bin	6.16e-08	0
bin	6.5333333333333e-08	0
bin	6.9066666666667e-08	0
bin	7.28e-08	0
bin	7.6533333333333e-08	0
bin	8.0266666666667e-08	0
bin	8.4e-08	0
scalar SingleCell.eNodeB.pppIf.queue 	dropPk:count 	0
attr interpolationmode  none
attr source  dropPkByQueue
attr title  "dropped packets, count"
scalar SingleCell.eNodeB.pppIf.queue 	dropPk:sum(packetBytes) 	0
attr interpolationmode  none
attr source  dropPkByQueue
attr title  "dropped packets, sum(packetBytes)"
scalar SingleCell.eNodeB.pppIf.queue 	queueLength:max 	1
attr interpolationmode  sample-hold
attr title  "queue length, max"
scalar SingleCell.eNodeB.pppIf.queue 	queueLength:timeavg 	2.8e-10
attr interpolationmode  sample-hold
attr title  "queue length, timeavg"
scalar SingleCell.eNodeB.pppIf.queue 	rcvdPk:count 	165
attr interpolationmode  none
attr title  "received packets, count"
scalar SingleCell.eNodeB.pppIf.queue 	rcvdPk:sum(packetBytes) 	10395
attr interpolationmode  none
attr title  "received packets, sum(packetBytes)"
scalar SingleCell.eNodeB.pppIf.ppp 	txState:timeavg 	4.62e-08
attr interpolationmode  sample-hold
attr title  "tx state, timeavg"
scalar SingleCell.eNodeB.pppIf.ppp 	droppedPkIfaceDown:count 	0
attr interpolationmode  none
attr source  dropPkIfaceDown
attr title  "packets dropped/interface down, count"
scalar SingleCell.eNodeB.pppIf.ppp 	droppedPkIfaceDown:sum(packetBytes) 	0
attr interpolationmode  none
attr source  dropPkIfaceDown
attr title  "packets dropped/interface down, sum(packetBytes)"
scalar SingleCell.eNodeB.pppIf.ppp 	droppedPkBitError:count 	0
attr interpolationmode  none
attr source  dropPkBitError
attr title  "packets dropped/bit error, count"
scalar SingleCell.eNodeB.pppIf.ppp 	droppedPkBitError:sum(packetBytes) 	0
attr interpolationmode  none
attr source  dropPkBitError
attr title  "packets dropped/bit error, sum(packetBytes)"
scalar SingleCell.eNodeB.pppIf.ppp 	rxPkOk:count 	163348
attr interpolationmode  none
attr source  rxPkOk
attr title  "packets received OK, count"
scalar SingleCell.eNodeB.pppIf.ppp 	rxPkOk:sum(packetBytes) 	173638924
attr interpolationmode  none
attr source  rxPkOk
attr title  "packets received OK, sum(packetBytes)"
scalar SingleCell.eNodeB.pppIf.ppp 	txPk:count 	165
attr interpolationmode  none
attr source  packetSentToLower
attr title  "packets transmitted, count"
scalar SingleCell.eNodeB.pppIf.ppp 	txPk:sum(packetBytes) 	11550
attr interpolationmode  none
attr source  packetSentToLower
attr title  "packets transmitted, sum(packetBytes)"
scalar SingleCell.eNodeB.pppIf.ppp 	rcvdPkFromHL:count 	165
attr interpolationmode  none
attr source  packetReceivedFromUpper
attr title  "packets received from higher layer, count"
scalar SingleCell.eNodeB.pppIf.ppp 	rcvdPkFromHL:sum(packetBytes) 	10395
attr interpolationmode  none
attr source  packetReceivedFromUpper
attr title  "packets received from higher layer, sum(packetBytes)"
scalar SingleCell.eNodeB.pppIf.ppp 	passedUpPk:count 	163348
attr interpolationmode  none
attr source  packetSentToUpper
attr title  "packets passed to higher layer, count"
scalar SingleCell.eNodeB.pppIf.ppp 	passedUpPk:sum(packetBytes) 	172495488
attr interpolationmode  none
attr source  packetSentToUpper
attr title  "packets passed to higher layer, sum(packetBytes)"
scalar SingleCell.eNodeB.networkLayer.arp 	failedARPResolution:count 	0
attr title  "ARP failed resolutions, count"
scalar SingleCell.eNodeB.networkLayer.arp 	completedARPResolution:count 	0
attr title  "ARP completed resolutions, count"
scalar SingleCell.eNodeB.networkLayer.arp 	initiatedARPResolution:count 	0
attr title  "ARP initiated resolutions, count"
scalar SingleCell.eNodeB.networkLayer.arp 	sentReply:count 	0
attr title  "ARP replies sent, count"
scalar SingleCell.eNodeB.networkLayer.arp 	sentReq:count 	0
attr title  "ARP request sent, count"
scalar SingleCell.eNodeB.udp 	droppedPkBadChecksum:count 	0
attr interpolationmode  none
attr title  "packets dropped (checksum error), count"
scalar SingleCell.eNodeB.udp 	droppedPkWrongPort:count 	0
attr interpolationmode  none
attr title  "packets dropped (wrong port), count"
scalar SingleCell.eNodeB.udp 	passedUpPk:count 	163348
attr interpolationmode  none
attr title  "packets passed up, count"
scalar SingleCell.eNodeB.udp 	rcvdPk:count 	163348
attr interpolationmode  none
attr source  rcvdPk
attr title  "packets received, count"
scalar SingleCell.eNodeB.udp 	rcvdPk:sum(packetBytes) 	169228528
attr interpolationmode  none
attr source  rcvdPk
attr title  "packets received, sum(packetBytes)"
scalar SingleCell.eNodeB.udp 	sentPk:count 	165
attr interpolationmode  none
attr source  sentPk
attr title  "packets sent, count"
scalar SingleCell.eNodeB.udp 	sentPk:sum(packetBytes) 	7095
attr interpolationmode  none
attr source  sentPk
attr title  "packets sent, sum(packetBytes)"
statistic SingleCell.ue[0].udpApp[0] 	endToEndDelay:stats
field count 48
field mean 4.0487708333333
field stddev 0.1954013044212
field sum 194.341
field sqrsum 788.636711
field min 4.006
field max 5.239
attr interpolationmode  none
attr source  segmentCompletionTime
attr title  "end-to-end delay, stats"
statistic SingleCell.ue[0].udpApp[1] 	endToEndDelay:stats
field count 48
field mean 4.0286458333333
field stddev 0.086198802771787
field sum 193.375
field sqrsum 779.388609
field min 4.006
field max 4.563
attr interpolationmode  none
attr source  segmentCompletionTime
attr title  "end-to-end delay, stats"
scalar SingleCell.ue[0].udp 	droppedPkBadChecksum:count 	0
attr interpolationmode  none
attr title  "packets dropped (checksum error), count"
scalar SingleCell.ue[0].udp 	droppedPkWrongPort:count 	0
attr interpolationmode  none
attr title  "packets dropped (wrong port), count"
scalar SingleCell.ue[0].udp 	passedUpPk:count 	97817
attr interpolationmode  none
attr title  "packets passed up, count"
scalar SingleCell.ue[0].udp 	rcvdPk:count 	97817
attr interpolationmode  none
attr source  rcvdPk
attr title  "packets received, count"
scalar SingleCell.ue[0].udp 	rcvdPk:sum(packetBytes) 	98599536
attr interpolationmode  none
attr source  rcvdPk
attr title  "packets received, sum(packetBytes)"
scalar SingleCell.ue[0].udp 	sentPk:count 	98
attr interpolationmode  none
attr source  sentPk
attr title  "packets sent, count"
scalar SingleCell.ue[0].udp 	sentPk:sum(packetBytes) 	1470
attr interpolationmode  none
attr source  sentPk
attr title  "packets sent, sum(packetBytes)"
scalar SingleCell.ue[0].nic.pdcpRrc 	sentPacketToLowerLayer:count 	98
attr interpolationmode  none
attr source  sentPacketToLowerLayer
scalar SingleCell.ue[0].nic.pdcpRrc 	sentPacketToLowerLayer:sum(packetBytes) 	3528
attr interpolationmode  none
attr source  sentPacketToLowerLayer
scalar SingleCell.ue[0].nic.pdcpRrc 	sentPacketToUpperLayer:count 	97817
attr interpolationmode  none
attr source  sentPacketToUpperLayer
scalar SingleCell.ue[0].nic.pdcpRrc 	sentPacketToUpperLayer:sum(packetBytes) 	100555876
attr interpolationmode  none
attr source  sentPacketToUpperLayer
scalar SingleCell.ue[0].nic.pdcpRrc 	receivedPacketFromLowerLayer:count 	97817
attr interpolationmode  none
attr source  receivedPacketFromLowerLayer
scalar SingleCell.ue[0].nic.pdcpRrc 	receivedPacketFromLowerLayer:sum(packetBytes) 	100653693
attr interpolationmode  none
attr source  receivedPacketFromLowerLayer
scalar SingleCell.ue[0].nic.pdcpRrc 	receivedPacketFromUpperLayer:count 	98
attr interpolationmode  none
attr source  receivedPacketFromUpperLayer
scalar SingleCell.ue[0].nic.pdcpRrc 	receivedPacketFromUpperLayer:sum(packetBytes) 	3430
attr interpolationmode  none
attr source  receivedPacketFromUpperLayer
scalar SingleCell.ue[0].nic.rlc.um 	rlcPduPacketLossDl:lteAvg 	0
attr source  rlcPduPacketLossDl
attr title  "rlc Packet Loss, lteAvg"
attr unit  ""
scalar SingleCell.ue[0].nic.rlc.um 	rlcPduPacketLossUl:lteAvg 	0
attr source  rlcPduPacketLossUl
attr title  "rlc Packet Loss, lteAvg"
attr unit  ""
scalar SingleCell.ue[0].nic.rlc.um 	rlcPacketLossTotal:lteAvg 	0.40125234662117
attr source  rlcPacketLossTotal
attr title  "rlc Packet Loss, lteAvg"
attr unit  ""
scalar SingleCell.ue[0].nic.rlc.um 	rlcPacketLossDl:lteAvg 	0.4014929482669
attr source  rlcPacketLossDl
attr title  "rlc Packet Loss, lteAvg"
attr unit  ""
scalar SingleCell.ue[0].nic.rlc.um 	rlcPacketLossUl:lteAvg 	0
attr source  rlcPacketLossUl
attr title  "rlc Packet Loss, lteAvg"
attr unit  ""
scalar SingleCell.ue[0].nic.rlc.um 	rlcPduThroughputUl:lteRate 	19.425027273829
attr source  rlcPduThroughputUl
attr title  "Throughput at the rlc layer UL, lteRate"
attr unit  Bps
scalar SingleCell.ue[0].nic.rlc.um 	rlcPduDelayUl:lteAvg 	0.0040503144654088
attr source  rlcPduDelayUl
attr title  "Delay at the rlc layer UL, lteAvg"
attr unit  s
scalar SingleCell.ue[0].nic.rlc.um 	rlcPduThroughputDl:lteRate 	509297.47407658
attr source  rlcPduThroughputDl
attr title  "Throughput at the rlc layer DL, lteRate"
attr unit  Bps
scalar SingleCell.ue[0].nic.rlc.um 	rlcPduDelayDl:lteAvg 	0.0040019935100204
attr source  rlcPduDelayDl
attr title  "Delay at the rlc layer UL, lteAvg"
attr unit  s
scalar SingleCell.ue[0].nic.rlc.um 	rlcThroughputUl:lteRate 	17.818901773809
attr source  rlcThroughputUl
attr title  "Throughput at the rlc layer UL, lteRate"
attr unit  Bps
scalar SingleCell.ue[0].nic.rlc.um 	rlcDelayUl:lteAvg 	0.037040816326531
attr source  rlcDelayUl
attr title  "Delay at the rlc layer UL, lteAvg"
attr unit  s
scalar SingleCell.ue[0].nic.rlc.um 	rlcThroughputDl:lteRate 	508385.36368549
attr source  rlcThroughputDl
attr title  "Throughput at the rlc layer DL, lteRate"
attr unit  Bps
scalar SingleCell.ue[0].nic.rlc.um 	rlcDelayDl:lteAvg 	0.0050014962438329
attr source  rlcDelayDl
attr title  "Delay at the rlc layer UL, lteAvg"
attr unit  s
scalar SingleCell.ue[0].nic.mac 	measuredItbs:mean 	-nan
attr source  measuredItbs
attr title  "TBS index, mean"
attr unit  ""
scalar SingleCell.ue[0].nic.mac 	harqErrorRate_4th_D2D:mean 	-nan
attr source  harqErrorRate_4th_D2D
attr title  "Harq Error Rate D2D, mean"
attr unit  ""
scalar SingleCell.ue[0].nic.mac 	harqErrorRate_4th_Dl:mean 	-nan
attr source  harqErrorRate_4th_Dl
attr title  "Harq Error Rate Dl, mean"
attr unit  ""
scalar SingleCell.ue[0].nic.mac 	harqErrorRate_4th_Ul:mean 	-nan
attr source  harqErrorRate_4th_Ul
attr title  "Harq Error Rate Dl, mean"
attr unit  ""
scalar SingleCell.ue[0].nic.mac 	harqErrorRate_3rd_D2D:mean 	-nan
attr source  harqErrorRate_3rd_D2D
attr title  "Harq Error Rate D2D, mean"
attr unit  ""
scalar SingleCell.ue[0].nic.mac 	harqErrorRate_3rd_Dl:mean 	-nan
attr source  harqErrorRate_3rd_Dl
attr title  "Harq Error Rate Dl, mean"
attr unit  ""
scalar SingleCell.ue[0].nic.mac 	harqErrorRate_3rd_Ul:mean 	-nan
attr source  harqErrorRate_3rd_Ul
attr title  "Harq Error Rate Dl, mean"
attr unit  ""
scalar SingleCell.ue[0].nic.mac 	harqErrorRate_2nd_D2D:mean 	-nan
attr source  harqErrorRate_2nd_D2D
attr title  "Harq Error Rate D2D, mean"
attr unit  ""
scalar SingleCell.ue[0].nic.mac 	harqErrorRate_2nd_Dl:mean 	0
attr source  harqErrorRate_2nd_Dl
attr title  "Harq Error Rate Dl, mean"
attr unit  ""
scalar SingleCell.ue[0].nic.mac 	harqErrorRate_2nd_Ul:mean 	0
attr source  harqErrorRate_2nd_Ul
attr title  "Harq Error Rate Dl, mean"
attr unit  ""
scalar SingleCell.ue[0].nic.mac 	harqErrorRate_1st_D2D:mean 	-nan
attr source  harqErrorRate_1st_D2D
attr title  "Harq Error Rate D2D, mean"
attr unit  ""
scalar SingleCell.ue[0].nic.mac 	harqErrorRate_1st_Dl:mean 	0.00033225166956464
attr source  harqErrorRate_1st_Dl
attr title  "Harq Error Rate Dl, mean"
attr unit  ""
scalar SingleCell.ue[0].nic.mac 	harqErrorRate_1st_Ul:mean 	0.0038461538461538
attr source  harqErrorRate_1st_Ul
attr title  "Harq Error Rate Dl, mean"
attr unit  ""
scalar SingleCell.ue[0].nic.mac 	harqErrorRateD2D:mean 	-nan
attr source  harqErrorRateD2D
attr title  "Harq Error Rate D2D, mean"
attr unit  ""
scalar SingleCell.ue[0].nic.mac 	harqErrorRateDl:mean 	0.00033214131505818
attr source  harqErrorRateDl
attr title  "Harq Error Rate Dl, mean"
attr unit  ""
scalar SingleCell.ue[0].nic.mac 	harqErrorRateUl:mean 	0.0038314176245211
attr source  harqErrorRateUl
attr title  "Harq Error Rate Dl, mean"
attr unit  ""
scalar SingleCell.ue[0].nic.mac 	macPacketLossD2D:mean 	-nan
attr source  macPacketLossD2D
attr title  "Mac Packet Loss D2D, mean"
attr unit  ""
scalar SingleCell.ue[0].nic.mac 	macPacketLossDl:mean 	0
attr source  macPacketLossDl
attr title  "Mac Packet Loss, mean"
attr unit  ""
scalar SingleCell.ue[0].nic.mac 	macPacketLossUl:mean 	0
attr source  macPacketLossUl
attr title  "Mac Packet Loss, mean"
attr unit  ""
scalar SingleCell.ue[0].nic.mac 	macCellPacketLossD2D:mean 	-nan
attr source  macCellPacketLossD2D
attr title  "Mac Cell Packet Loss D2D, mean"
attr unit  ""
scalar SingleCell.ue[0].nic.mac 	macCellPacketLossUl:mean 	-nan
attr source  macCellPacketLossUl
attr title  "Mac Cell Packet Loss, mean"
attr unit  ""
scalar SingleCell.ue[0].nic.mac 	macCellPacketLossDl:mean 	-nan
attr source  macCellPacketLossDl
attr title  "Mac Cell Packet Loss, mean"
attr unit  ""
scalar SingleCell.ue[0].nic.mac 	macThroughputDl:lteRate 	510209.58446767
attr source  macThroughputDl
attr title  "Throughput at the MAC layer DL, lteRate"
attr unit  Bps
scalar SingleCell.ue[0].nic.mac 	macDelayDl:lteAvg 	0.0040019935100204
attr source  macDelayDl
attr title  "Delay at the MAC layer UL, lteAvg"
attr unit  s
scalar SingleCell.ue[0].nic.mac 	sentPacketToLowerLayer:count 	91309
attr interpolationmode  none
attr source  sentPacketToLowerLayer
scalar SingleCell.ue[0].nic.mac 	sentPacketToLowerLayer:sum(packetBytes) 	4951
attr interpolationmode  none
attr source  sentPacketToLowerLayer
scalar SingleCell.ue[0].nic.mac 	sentPacketToUpperLayer:count 	90825
attr interpolationmode  none
attr source  sentPacketToUpperLayer
scalar SingleCell.ue[0].nic.mac 	sentPacketToUpperLayer:sum(packetBytes) 	100834279
attr interpolationmode  none
attr source  sentPacketToUpperLayer
scalar SingleCell.ue[0].nic.mac 	receivedPacketFromLowerLayer:count 	192266
attr interpolationmode  none
attr source  receivedPacketFromLowerLayer
scalar SingleCell.ue[0].nic.mac 	receivedPacketFromLowerLayer:sum(packetBytes) 	101058211
attr interpolationmode  none
attr source  receivedPacketFromLowerLayer
scalar SingleCell.ue[0].nic.mac 	receivedPacketFromUpperLayer:count 	630
attr interpolationmode  none
attr source  receivedPacketFromUpperLayer
scalar SingleCell.ue[0].nic.mac 	receivedPacketFromUpperLayer:sum(packetBytes) 	7374
attr interpolationmode  none
attr source  receivedPacketFromUpperLayer
scalar SingleCell.ue[0].nic.mac 	averageCqiDl:lteAvg 	14.968779407694
attr source  averageCqiDl
attr title  "Average Cqi reported in DL, lteAvg"
attr unit  cqi
scalar SingleCell.ue[0].networkLayer.arp 	failedARPResolution:count 	0
attr title  "ARP failed resolutions, count"
scalar SingleCell.ue[0].networkLayer.arp 	completedARPResolution:count 	0
attr title  "ARP completed resolutions, count"
scalar SingleCell.ue[0].networkLayer.arp 	initiatedARPResolution:count 	0
attr title  "ARP initiated resolutions, count"
scalar SingleCell.ue[0].networkLayer.arp 	sentReply:count 	0
attr title  "ARP replies sent, count"
scalar SingleCell.ue[0].networkLayer.arp 	sentReq:count 	0
attr title  "ARP request sent, count"
statistic SingleCell.ue[1].udpApp[0] 	endToEndDelay:stats
field count 46
field mean 4.0536086956522
field stddev 0.17636407775596
field sum 186.466
field sqrsum 757.259892
field min 4.009
field max 5.153
attr interpolationmode  none
attr source  segmentCompletionTime
attr title  "end-to-end delay, stats"
statistic SingleCell.ue[1].udpApp[1] 	endToEndDelay:stats
field count 45
field mean 4.0881555555556
field stddev 0.30155513257081
field sum 183.967
field sqrsum 756.086875
field min 4.009
field max 5.953
attr interpolationmode  none
attr source  segmentCompletionTime
attr title  "end-to-end delay, stats"
scalar SingleCell.ue[1].udp 	droppedPkBadChecksum:count 	0
attr interpolationmode  none
attr title  "packets dropped (checksum error), count"
scalar SingleCell.ue[1].udp 	droppedPkWrongPort:count 	0
attr interpolationmode  none
attr title  "packets dropped (wrong port), count"
scalar SingleCell.ue[1].udp 	passedUpPk:count 	1092
attr interpolationmode  none
attr title  "packets passed up, count"
scalar SingleCell.ue[1].udp 	rcvdPk:count 	1092
attr interpolationmode  none
attr source  rcvdPk
attr title  "packets received, count"
scalar SingleCell.ue[1].udp 	rcvdPk:sum(packetBytes) 	1009380
attr interpolationmode  none
attr source  rcvdPk
attr title  "packets received, sum(packetBytes)"
scalar SingleCell.ue[1].udp 	sentPk:count 	93
attr interpolationmode  none
attr source  sentPk
attr title  "packets sent, count"
scalar SingleCell.ue[1].udp 	sentPk:sum(packetBytes) 	1395
attr interpolationmode  none
attr source  sentPk
attr title  "packets sent, sum(packetBytes)"
scalar SingleCell.ue[1].nic.pdcpRrc 	sentPacketToLowerLayer:count 	93
attr interpolationmode  none
attr source  sentPacketToLowerLayer
scalar SingleCell.ue[1].nic.pdcpRrc 	sentPacketToLowerLayer:sum(packetBytes) 	3348
attr interpolationmode  none
attr source  sentPacketToLowerLayer
scalar SingleCell.ue[1].nic.pdcpRrc 	sentPacketToUpperLayer:count 	1092
attr interpolationmode  none
attr source  sentPacketToUpperLayer
scalar SingleCell.ue[1].nic.pdcpRrc 	sentPacketToUpperLayer:sum(packetBytes) 	1031220
attr interpolationmode  none
attr source  sentPacketToUpperLayer
scalar SingleCell.ue[1].nic.pdcpRrc 	receivedPacketFromLowerLayer:count 	1092
attr interpolationmode  none
attr source  receivedPacketFromLowerLayer
scalar SingleCell.ue[1].nic.pdcpRrc 	receivedPacketFromLowerLayer:sum(packetBytes) 	1032312
attr interpolationmode  none
attr source  receivedPacketFromLowerLayer
scalar SingleCell.ue[1].nic.pdcpRrc 	receivedPacketFromUpperLayer:count 	93
attr interpolationmode  none
attr source  receivedPacketFromUpperLayer
scalar SingleCell.ue[1].nic.pdcpRrc 	receivedPacketFromUpperLayer:sum(packetBytes) 	3255
attr interpolationmode  none
attr source  receivedPacketFromUpperLayer
scalar SingleCell.ue[1].nic.rlc.um 	rlcPduPacketLossDl:lteAvg 	0
attr source  rlcPduPacketLossDl
attr title  "rlc Packet Loss, lteAvg"
attr unit  ""
scalar SingleCell.ue[1].nic.rlc.um 	rlcPduPacketLossUl:lteAvg 	0
attr source  rlcPduPacketLossUl
attr title  "rlc Packet Loss, lteAvg"
attr unit  ""
scalar SingleCell.ue[1].nic.rlc.um 	rlcPacketLossTotal:lteAvg 	0.99268586242015
attr source  rlcPacketLossTotal
attr title  "rlc Packet Loss, lteAvg"
attr unit  ""
scalar SingleCell.ue[1].nic.rlc.um 	rlcPacketLossDl:lteAvg 	0.993256012154
attr source  rlcPacketLossDl
attr title  "rlc Packet Loss, lteAvg"
attr unit  ""
scalar SingleCell.ue[1].nic.rlc.um 	rlcPacketLossUl:lteAvg 	0
attr source  rlcPacketLossUl
attr title  "rlc Packet Loss, lteAvg"
attr unit  ""
scalar SingleCell.ue[1].nic.rlc.um 	rlcPduThroughputUl:lteRate 	20.000851100047
attr source  rlcPduThroughputUl
attr title  "Throughput at the rlc layer UL, lteRate"
attr unit  Bps
scalar SingleCell.ue[1].nic.rlc.um 	rlcPduDelayUl:lteAvg 	0.0040776699029126
attr source  rlcPduDelayUl
attr title  "Delay at the rlc layer UL, lteAvg"
attr unit  s
scalar SingleCell.ue[1].nic.rlc.um 	rlcPduThroughputDl:lteRate 	5503.0081867363
attr source  rlcPduThroughputDl
attr title  "Throughput at the rlc layer DL, lteRate"
attr unit  Bps
scalar SingleCell.ue[1].nic.rlc.um 	rlcPduDelayDl:lteAvg 	0.004
attr source  rlcPduDelayDl
attr title  "Delay at the rlc layer UL, lteAvg"
attr unit  s
scalar SingleCell.ue[1].nic.rlc.um 	rlcThroughputUl:lteRate 	17.80926847951
attr source  rlcThroughputUl
attr title  "Throughput at the rlc layer UL, lteRate"
attr unit  Bps
scalar SingleCell.ue[1].nic.rlc.um 	rlcDelayUl:lteAvg 	0.064494623655914
attr source  rlcDelayUl
attr title  "Delay at the rlc layer UL, lteAvg"
attr unit  s
scalar SingleCell.ue[1].nic.rlc.um 	rlcThroughputDl:lteRate 	5491.4010011331
attr source  rlcThroughputDl
attr title  "Throughput at the rlc layer DL, lteRate"
attr unit  Bps
scalar SingleCell.ue[1].nic.rlc.um 	rlcDelayDl:lteAvg 	0.0049973172161172
attr source  rlcDelayDl
attr title  "Delay at the rlc layer UL, lteAvg"
attr unit  s
scalar SingleCell.ue[1].nic.mac 	measuredItbs:mean 	-nan
attr source  measuredItbs
attr title  "TBS index, mean"
attr unit  ""
scalar SingleCell.ue[1].nic.mac 	harqErrorRate_4th_D2D:mean 	-nan
attr source  harqErrorRate_4th_D2D
attr title  "Harq Error Rate D2D, mean"
attr unit  ""
scalar SingleCell.ue[1].nic.mac 	harqErrorRate_4th_Dl:mean 	-nan
attr source  harqErrorRate_4th_Dl
attr title  "Harq Error Rate Dl, mean"
attr unit  ""
scalar SingleCell.ue[1].nic.mac 	harqErrorRate_4th_Ul:mean 	-nan
attr source  harqErrorRate_4th_Ul
attr title  "Harq Error Rate Dl, mean"
attr unit  ""
scalar SingleCell.ue[1].nic.mac 	harqErrorRate_3rd_D2D:mean 	-nan
attr source  harqErrorRate_3rd_D2D
attr title  "Harq Error Rate D2D, mean"
attr unit  ""
scalar SingleCell.ue[1].nic.mac 	harqErrorRate_3rd_Dl:mean 	-nan
attr source  harqErrorRate_3rd_Dl
attr title  "Harq Error Rate Dl, mean"
attr unit  ""
scalar SingleCell.ue[1].nic.mac 	harqErrorRate_3rd_Ul:mean 	-nan
attr source  harqErrorRate_3rd_Ul
attr title  "Harq Error Rate Dl, mean"
attr unit  ""
scalar SingleCell.ue[1].nic.mac 	harqErrorRate_2nd_D2D:mean 	-nan
attr source  harqErrorRate_2nd_D2D
attr title  "Harq Error Rate D2D, mean"
attr unit  ""
scalar SingleCell.ue[1].nic.mac 	harqErrorRate_2nd_Dl:mean 	-nan
attr source  harqErrorRate_2nd_Dl
attr title  "Harq Error Rate Dl, mean"
attr unit  ""
scalar SingleCell.ue[1].nic.mac 	harqErrorRate_2nd_Ul:mean 	0
attr source  harqErrorRate_2nd_Ul
attr title  "Harq Error Rate Dl, mean"
attr unit  ""
scalar SingleCell.ue[1].nic.mac 	harqErrorRate_1st_D2D:mean 	-nan
attr source  harqErrorRate_1st_D2D
attr title  "Harq Error Rate D2D, mean"
attr unit  ""
scalar SingleCell.ue[1].nic.mac 	harqErrorRate_1st_Dl:mean 	0
attr source  harqErrorRate_1st_Dl
attr title  "Harq Error Rate Dl, mean"
attr unit  ""
scalar SingleCell.ue[1].nic.mac 	harqErrorRate_1st_Ul:mean 	0.012897678417885
attr source  harqErrorRate_1st_Ul
attr title  "Harq Error Rate Dl, mean"
attr unit  ""
scalar SingleCell.ue[1].nic.mac 	harqErrorRateD2D:mean 	-nan
attr source  harqErrorRateD2D
attr title  "Harq Error Rate D2D, mean"
attr unit  ""
scalar SingleCell.ue[1].nic.mac 	harqErrorRateDl:mean 	0
attr source  harqErrorRateDl
attr title  "Harq Error Rate Dl, mean"
attr unit  ""
scalar SingleCell.ue[1].nic.mac 	harqErrorRateUl:mean 	0.012733446519525
attr source  harqErrorRateUl
attr title  "Harq Error Rate Dl, mean"
attr unit  ""
scalar SingleCell.ue[1].nic.mac 	macPacketLossD2D:mean 	-nan
attr source  macPacketLossD2D
attr title  "Mac Packet Loss D2D, mean"
attr unit  ""
scalar SingleCell.ue[1].nic.mac 	macPacketLossDl:mean 	0
attr source  macPacketLossDl
attr title  "Mac Packet Loss, mean"
attr unit  ""
scalar SingleCell.ue[1].nic.mac 	macPacketLossUl:mean 	0
attr source  macPacketLossUl
attr title  "Mac Packet Loss, mean"
attr unit  ""
scalar SingleCell.ue[1].nic.mac 	macCellPacketLossD2D:mean 	-nan
attr source  macCellPacketLossD2D
attr title  "Mac Cell Packet Loss D2D, mean"
attr unit  ""
scalar SingleCell.ue[1].nic.mac 	macCellPacketLossUl:mean 	-nan
attr source  macCellPacketLossUl
attr title  "Mac Cell Packet Loss, mean"
attr unit  ""
scalar SingleCell.ue[1].nic.mac 	macCellPacketLossDl:mean 	-nan
attr source  macCellPacketLossDl
attr title  "Mac Cell Packet Loss, mean"
attr unit  ""
scalar SingleCell.ue[1].nic.mac 	macThroughputDl:lteRate 	5514.6153723396
attr source  macThroughputDl
attr title  "Throughput at the MAC layer DL, lteRate"
attr unit  Bps
scalar SingleCell.ue[1].nic.mac 	macDelayDl:lteAvg 	0.004
attr source  macDelayDl
attr title  "Delay at the MAC layer UL, lteAvg"
attr unit  s
scalar SingleCell.ue[1].nic.mac 	sentPacketToLowerLayer:count 	3401
attr interpolationmode  none
attr source  sentPacketToLowerLayer
scalar SingleCell.ue[1].nic.mac 	sentPacketToLowerLayer:sum(packetBytes) 	6139
attr interpolationmode  none
attr source  sentPacketToLowerLayer
scalar SingleCell.ue[1].nic.mac 	sentPacketToUpperLayer:count 	2254
attr interpolationmode  none
attr source  sentPacketToUpperLayer
scalar SingleCell.ue[1].nic.mac 	sentPacketToUpperLayer:sum(packetBytes) 	1034494
attr interpolationmode  none
attr source  sentPacketToUpperLayer
scalar SingleCell.ue[1].nic.mac 	receivedPacketFromLowerLayer:count 	64665
attr interpolationmode  none
attr source  receivedPacketFromLowerLayer
scalar SingleCell.ue[1].nic.mac 	receivedPacketFromLowerLayer:sum(packetBytes) 	1036676
attr interpolationmode  none
attr source  receivedPacketFromLowerLayer
scalar SingleCell.ue[1].nic.mac 	receivedPacketFromUpperLayer:count 	1256
attr interpolationmode  none
attr source  receivedPacketFromUpperLayer
scalar SingleCell.ue[1].nic.mac 	receivedPacketFromUpperLayer:sum(packetBytes) 	7108
attr interpolationmode  none
attr source  receivedPacketFromUpperLayer
scalar SingleCell.ue[1].nic.mac 	averageCqiDl:lteAvg 	14.997250229148
attr source  averageCqiDl
attr title  "Average Cqi reported in DL, lteAvg"
attr unit  cqi
scalar SingleCell.ue[1].networkLayer.arp 	failedARPResolution:count 	0
attr title  "ARP failed resolutions, count"
scalar SingleCell.ue[1].networkLayer.arp 	completedARPResolution:count 	0
attr title  "ARP completed resolutions, count"
scalar SingleCell.ue[1].networkLayer.arp 	initiatedARPResolution:count 	0
attr title  "ARP initiated resolutions, count"
scalar SingleCell.ue[1].networkLayer.arp 	sentReply:count 	0
attr title  "ARP replies sent, count"
scalar SingleCell.ue[1].networkLayer.arp 	sentReq:count 	0
attr title  "ARP request sent, count"
statistic SingleCell.ue[2].udpApp[0] 	endToEndDelay:stats
field count 32
field mean 4.01475
field stddev 0.017258938777969
field sum 128.472
field sqrsum 515.792196
field min 4.006
field max 4.105
attr interpolationmode  none
attr source  segmentCompletionTime
attr title  "end-to-end delay, stats"
statistic SingleCell.ue[2].udpApp[1] 	endToEndDelay:stats
field count 32
field mean 4.01178125
field stddev 0.005001511868634
field sum 128.377
field sqrsum 515.021217
field min 4.006
field max 4.02
attr interpolationmode  none
attr source  segmentCompletionTime
attr title  "end-to-end delay, stats"
scalar SingleCell.ue[2].udp 	droppedPkBadChecksum:count 	0
attr interpolationmode  none
attr title  "packets dropped (checksum error), count"
scalar SingleCell.ue[2].udp 	droppedPkWrongPort:count 	0
attr interpolationmode  none
attr title  "packets dropped (wrong port), count"
scalar SingleCell.ue[2].udp 	passedUpPk:count 	64527
attr interpolationmode  none
attr title  "packets passed up, count"
scalar SingleCell.ue[2].udp 	rcvdPk:count 	64527
attr interpolationmode  none
attr source  rcvdPk
attr title  "packets received, count"
scalar SingleCell.ue[2].udp 	rcvdPk:sum(packetBytes) 	65043216
attr interpolationmode  none
attr source  rcvdPk
attr title  "packets received, sum(packetBytes)"
scalar SingleCell.ue[2].udp 	sentPk:count 	66
attr interpolationmode  none
attr source  sentPk
attr title  "packets sent, count"
scalar SingleCell.ue[2].udp 	sentPk:sum(packetBytes) 	990
attr interpolationmode  none
attr source  sentPk
attr title  "packets sent, sum(packetBytes)"
scalar SingleCell.ue[2].nic.pdcpRrc 	sentPacketToLowerLayer:count 	66
attr interpolationmode  none
attr source  sentPacketToLowerLayer
scalar SingleCell.ue[2].nic.pdcpRrc 	sentPacketToLowerLayer:sum(packetBytes) 	2376
attr interpolationmode  none
attr source  sentPacketToLowerLayer
scalar SingleCell.ue[2].nic.pdcpRrc 	sentPacketToUpperLayer:count 	64527
attr interpolationmode  none
attr source  sentPacketToUpperLayer
scalar SingleCell.ue[2].nic.pdcpRrc 	sentPacketToUpperLayer:sum(packetBytes) 	66333756
attr interpolationmode  none
attr source  sentPacketToUpperLayer
scalar SingleCell.ue[2].nic.pdcpRrc 	receivedPacketFromLowerLayer:count 	64527
attr interpolationmode  none
attr source  receivedPacketFromLowerLayer
scalar SingleCell.ue[2].nic.pdcpRrc 	receivedPacketFromLowerLayer:sum(packetBytes) 	66398283
attr interpolationmode  none
attr source  receivedPacketFromLowerLayer
scalar SingleCell.ue[2].nic.pdcpRrc 	receivedPacketFromUpperLayer:count 	66
attr interpolationmode  none
attr source  receivedPacketFromUpperLayer
scalar SingleCell.ue[2].nic.pdcpRrc 	receivedPacketFromUpperLayer:sum(packetBytes) 	2310
attr interpolationmode  none
attr source  receivedPacketFromUpperLayer
scalar SingleCell.ue[2].nic.rlc.um 	rlcPduPacketLossDl:lteAvg 	0
attr source  rlcPduPacketLossDl
attr title  "rlc Packet Loss, lteAvg"
attr unit  ""
scalar SingleCell.ue[2].nic.rlc.um 	rlcPduPacketLossUl:lteAvg 	0
attr source  rlcPduPacketLossUl
attr title  "rlc Packet Loss, lteAvg"
attr unit  ""
scalar SingleCell.ue[2].nic.rlc.um 	rlcPacketLossTotal:lteAvg 	0.60493819609666
attr source  rlcPacketLossTotal
attr title  "rlc Packet Loss, lteAvg"
attr unit  ""
scalar SingleCell.ue[2].nic.rlc.um 	rlcPacketLossDl:lteAvg 	0.60518248845107
attr source  rlcPacketLossDl
attr title  "rlc Packet Loss, lteAvg"
attr unit  ""
scalar SingleCell.ue[2].nic.rlc.um 	rlcPacketLossUl:lteAvg 	0
attr source  rlcPacketLossUl
attr title  "rlc Packet Loss, lteAvg"
attr unit  ""
scalar SingleCell.ue[2].nic.rlc.um 	rlcPduThroughputUl:lteRate 	19.939688596221
attr source  rlcPduThroughputUl
attr title  "Throughput at the rlc layer UL, lteRate"
attr unit  Bps
scalar SingleCell.ue[2].nic.rlc.um 	rlcPduDelayUl:lteAvg 	0.0040740740740741
attr source  rlcPduDelayUl
attr title  "Delay at the rlc layer UL, lteAvg"
attr unit  s
scalar SingleCell.ue[2].nic.rlc.um 	rlcPduThroughputDl:lteRate 	511777.78547085
attr source  rlcPduThroughputDl
attr title  "Throughput at the rlc layer DL, lteRate"
attr unit  Bps
scalar SingleCell.ue[2].nic.rlc.um 	rlcPduDelayDl:lteAvg 	0.0040086545777291
attr source  rlcPduDelayDl
attr title  "Delay at the rlc layer UL, lteAvg"
attr unit  s
scalar SingleCell.ue[2].nic.rlc.um 	rlcThroughputUl:lteRate 	18.27804787987
attr source  rlcThroughputUl
attr title  "Throughput at the rlc layer UL, lteRate"
attr unit  Bps
scalar SingleCell.ue[2].nic.rlc.um 	rlcDelayUl:lteAvg 	0.012469696969697
attr source  rlcDelayUl
attr title  "Delay at the rlc layer UL, lteAvg"
attr unit  s
scalar SingleCell.ue[2].nic.rlc.um 	rlcThroughputDl:lteRate 	510807.1037873
attr source  rlcThroughputDl
attr title  "Throughput at the rlc layer DL, lteRate"
attr unit  Bps
scalar SingleCell.ue[2].nic.rlc.um 	rlcDelayDl:lteAvg 	0.0050150102358811
attr source  rlcDelayDl
attr title  "Delay at the rlc layer UL, lteAvg"
attr unit  s
scalar SingleCell.ue[2].nic.mac 	measuredItbs:mean 	-nan
attr source  measuredItbs
attr title  "TBS index, mean"
attr unit  ""
scalar SingleCell.ue[2].nic.mac 	harqErrorRate_4th_D2D:mean 	-nan
attr source  harqErrorRate_4th_D2D
attr title  "Harq Error Rate D2D, mean"
attr unit  ""
scalar SingleCell.ue[2].nic.mac 	harqErrorRate_4th_Dl:mean 	-nan
attr source  harqErrorRate_4th_Dl
attr title  "Harq Error Rate Dl, mean"
attr unit  ""
scalar SingleCell.ue[2].nic.mac 	harqErrorRate_4th_Ul:mean 	-nan
attr source  harqErrorRate_4th_Ul
attr title  "Harq Error Rate Dl, mean"
attr unit  ""
scalar SingleCell.ue[2].nic.mac 	harqErrorRate_3rd_D2D:mean 	-nan
attr source  harqErrorRate_3rd_D2D
attr title  "Harq Error Rate D2D, mean"
attr unit  ""
scalar SingleCell.ue[2].nic.mac 	harqErrorRate_3rd_Dl:mean 	-nan
attr source  harqErrorRate_3rd_Dl
attr title  "Harq Error Rate Dl, mean"
attr unit  ""
scalar SingleCell.ue[2].nic.mac 	harqErrorRate_3rd_Ul:mean 	-nan
attr source  harqErrorRate_3rd_Ul
attr title  "Harq Error Rate Dl, mean"
attr unit  ""
scalar SingleCell.ue[2].nic.mac 	harqErrorRate_2nd_D2D:mean 	-nan
attr source  harqErrorRate_2nd_D2D
attr title  "Harq Error Rate D2D, mean"
attr unit  ""
scalar SingleCell.ue[2].nic.mac 	harqErrorRate_2nd_Dl:mean 	0
attr source  harqErrorRate_2nd_Dl
attr title  "Harq Error Rate Dl, mean"
attr unit  ""
scalar SingleCell.ue[2].nic.mac 	harqErrorRate_2nd_Ul:mean 	0
attr source  harqErrorRate_2nd_Ul
attr title  "Harq Error Rate Dl, mean"
attr unit  ""
scalar SingleCell.ue[2].nic.mac 	harqErrorRate_1st_D2D:mean 	-nan
attr source  harqErrorRate_1st_D2D
attr title  "Harq Error Rate D2D, mean"
attr unit  ""
scalar SingleCell.ue[2].nic.mac 	harqErrorRate_1st_Dl:mean 	0.0014424524862491
attr source  harqErrorRate_1st_Dl
attr title  "Harq Error Rate Dl, mean"
attr unit  ""
scalar SingleCell.ue[2].nic.mac 	harqErrorRate_1st_Ul:mean 	0.008
attr source  harqErrorRate_1st_Ul
attr title  "Harq Error Rate Dl, mean"
attr unit  ""
scalar SingleCell.ue[2].nic.mac 	harqErrorRateD2D:mean 	-nan
attr source  harqErrorRateD2D
attr title  "Harq Error Rate D2D, mean"
attr unit  ""
scalar SingleCell.ue[2].nic.mac 	harqErrorRateDl:mean 	0.0014403748140175
attr source  harqErrorRateDl
attr title  "Harq Error Rate Dl, mean"
attr unit  ""
scalar SingleCell.ue[2].nic.mac 	harqErrorRateUl:mean 	0.0079365079365079
attr source  harqErrorRateUl
attr title  "Harq Error Rate Dl, mean"
attr unit  ""
scalar SingleCell.ue[2].nic.mac 	macPacketLossD2D:mean 	-nan
attr source  macPacketLossD2D
attr title  "Mac Packet Loss D2D, mean"
attr unit  ""
scalar SingleCell.ue[2].nic.mac 	macPacketLossDl:mean 	0
attr source  macPacketLossDl
attr title  "Mac Packet Loss, mean"
attr unit  ""
scalar SingleCell.ue[2].nic.mac 	macPacketLossUl:mean 	0
attr source  macPacketLossUl
attr title  "Mac Packet Loss, mean"
attr unit  ""
scalar SingleCell.ue[2].nic.mac 	macCellPacketLossD2D:mean 	-nan
attr source  macCellPacketLossD2D
attr title  "Mac Cell Packet Loss D2D, mean"
attr unit  ""
scalar SingleCell.ue[2].nic.mac 	macCellPacketLossUl:mean 	-nan
attr source  macCellPacketLossUl
attr title  "Mac Cell Packet Loss, mean"
attr unit  ""
scalar SingleCell.ue[2].nic.mac 	macCellPacketLossDl:mean 	-nan
attr source  macCellPacketLossDl
attr title  "Mac Cell Packet Loss, mean"
attr unit  ""
scalar SingleCell.ue[2].nic.mac 	macThroughputDl:lteRate 	512748.46715441
attr source  macThroughputDl
attr title  "Throughput at the MAC layer DL, lteRate"
attr unit  Bps
scalar SingleCell.ue[2].nic.mac 	macDelayDl:lteAvg 	0.0040086545777291
attr source  macDelayDl
attr title  "Delay at the MAC layer UL, lteAvg"
attr unit  s
scalar SingleCell.ue[2].nic.mac 	sentPacketToLowerLayer:count 	63412
attr interpolationmode  none
attr source  sentPacketToLowerLayer
scalar SingleCell.ue[2].nic.mac 	sentPacketToLowerLayer:sum(packetBytes) 	2882
attr interpolationmode  none
attr source  sentPacketToLowerLayer
scalar SingleCell.ue[2].nic.mac 	sentPacketToUpperLayer:count 	63213
attr interpolationmode  none
attr source  sentPacketToUpperLayer
scalar SingleCell.ue[2].nic.mac 	sentPacketToUpperLayer:sum(packetBytes) 	66524459
attr interpolationmode  none
attr source  sentPacketToUpperLayer
scalar SingleCell.ue[2].nic.mac 	receivedPacketFromLowerLayer:count 	92881
attr interpolationmode  none
attr source  receivedPacketFromLowerLayer
scalar SingleCell.ue[2].nic.mac 	receivedPacketFromLowerLayer:sum(packetBytes) 	66751845
attr interpolationmode  none
attr source  receivedPacketFromLowerLayer
scalar SingleCell.ue[2].nic.mac 	receivedPacketFromUpperLayer:count 	191
attr interpolationmode  none
attr source  receivedPacketFromUpperLayer
scalar SingleCell.ue[2].nic.mac 	receivedPacketFromUpperLayer:sum(packetBytes) 	4968
attr interpolationmode  none
attr source  receivedPacketFromUpperLayer
scalar SingleCell.ue[2].nic.mac 	averageCqiDl:lteAvg 	14.921494143716
attr source  averageCqiDl
attr title  "Average Cqi reported in DL, lteAvg"
attr unit  cqi
scalar SingleCell.ue[2].networkLayer.arp 	failedARPResolution:count 	0
attr title  "ARP failed resolutions, count"
scalar SingleCell.ue[2].networkLayer.arp 	completedARPResolution:count 	0
attr title  "ARP completed resolutions, count"
scalar SingleCell.ue[2].networkLayer.arp 	initiatedARPResolution:count 	0
attr title  "ARP initiated resolutions, count"
scalar SingleCell.ue[2].networkLayer.arp 	sentReply:count 	0
attr title  "ARP replies sent, count"
scalar SingleCell.ue[2].networkLayer.arp 	sentReq:count 	0
attr title  "ARP request sent, count"
run Scenario_1-1-20190320-09:38:11-8717
attr configname Scenario_1
attr datetime 20190320-09:38:11
attr experiment Scenario_1
attr inifile omnetpp.ini
attr iterationvars "$0=19, $1=false"
attr iterationvarsf 19,false-
attr measurement "$0=19, $1=false"
attr network SingleCell
attr processid 8717
attr repetition 0
attr replication #0
attr resultdir results
attr runnumber 1
attr seedset 1
param **.bufferSize (19s)
param **.channelControl.carrierFrequency 2100e+6Hz
param **.d2d (false)
param **.fbDelay 1
param **.feedbackComputation "xmldoc(\"config_channel.xml\")"
param **.mac.maxBytesPerTti 1KiB
param **.mac.queueSize 1MiB
param **.mac.schedulingDisciplineDl "\"MAXCI\""
param **.mac.schedulingDisciplineUl "\"MAXCI\""
param **.nic.phy.channelModel "xmldoc(\"config_channel.xml\")"
param **.packetInt 4ms
param **.routingRecorder.enabled false
param **.server.udpApp[*].typename "\"UDPVideoStreamServer\""
param **.server.udpApp[0].viewID 1
param **.server.udpApp[1].viewID 2
param **.ue[*].macCellId 1
param **.ue[*].masterId 1
param **.ue[*].udpApp[*].typename "\"UDPVideoStreamClient\""
param **.ue[*].udpApp[0].viewID 1
param **.ue[*].udpApp[1].viewID 2
param **.ue[0].udpApp[0].startTime 2s
param **.ue[0].udpApp[1].startTime 3s
param **.ue[1].udpApp[0].startTime 12s
param **.ue[1].udpApp[1].startTime 13s
param **.ue[2].udpApp[0].startTime 70s
param **.ue[2].udpApp[1].startTime 71s
param *.numUe 3
param *.server.numUdpApps 2
param *.ue[*].mobility.constraintAreaMaxX 486m
param *.ue[*].mobility.constraintAreaMaxY 226m
param *.ue[*].mobility.constraintAreaMinX 457m
param *.ue[*].mobility.constraintAreaMinY 202m
param *.ue[*].mobility.initFromDisplayString false
param *.ue[*].mobility.initialX uniform(457m,486m)
param *.ue[*].mobility.initialY uniform(202m,226m)
param *.ue[*].mobility.initialZ 0
param *.ue[*].mobility.speed 1mps
param *.ue[*].mobilityType "\"LinearMobility\""
param *.ue[*].numUdpApps 2

scalar SingleCell.server.networkLayer.arp 	failedARPResolution:count 	0
attr title  "ARP failed resolutions, count"
[...]
attr title  "packets dropped (wrong port), count"
scalar SingleCell.ue[1].udp 	passedUpPk:count 	93538
attr interpolationmode  none
attr title  "packets passed up, count"
scalar SingleCell.ue[1].udp 	rcvdPk:count 	93538
attr interpolationmode  none
attr source  rcvdPk
attr title  "packets received, count"
scalar SingleCell.ue[1].udp 	rcvdPk:sum(packetBytes) 	94286304
attr interpolationmode  none
attr source  rcvdPk
attr title  "packets received, sum(packetBytes)"
scalar SingleCell.ue[1].udp 	sentPk:count 	94
attr interpolationmode  none
attr source  sentPk
attr title  "packets sent, count"
scalar SingleCell.ue[1].udp 	sentPk:sum(packetBytes) 	1410
attr interpolationmode  none
attr source  sentPk
attr title  "packets sent, sum(packetBytes)"
scalar SingleCell.ue[1].nic.pdcpRrc 	sentPacketToLowerLayer:count 	94
attr interpolationmode  none
attr source  sentPacketToLowerLayer
scalar SingleCell.ue[1].nic.pdcpRrc 	sentPacketToLowerLayer:sum(packetBytes) 	3384
attr interpolationmode  none
attr source  sentPacketToLowerLayer
scalar SingleCell.ue[1].nic.pdcpRrc 	sentPacketToUpperLayer:count 	93538
attr interpolationmode  none
attr source  sentPacketToUpperLayer
scalar SingleCell.ue[1].nic.pdcpRrc 	sentPacketToUpperLayer:sum(packetBytes) 	96157064
attr interpolationmode  none
attr source  sentPacketToUpperLayer
scalar SingleCell.ue[1].nic.pdcpRrc 	receivedPacketFromLowerLayer:count 	93538
attr interpolationmode  none
attr source  receivedPacketFromLowerLayer
scalar SingleCell.ue[1].nic.pdcpRrc 	receivedPacketFromLowerLayer:sum(packetBytes) 	96250602
attr interpolationmode  none
attr source  receivedPacketFromLowerLayer
scalar SingleCell.ue[1].nic.pdcpRrc 	receivedPacketFromUpperLayer:count 	94
attr interpolationmode  none
attr source  receivedPacketFromUpperLayer
scalar SingleCell.ue[1].nic.pdcpRrc 	receivedPacketFromUpperLayer:sum(packetBytes) 	3290
attr interpolationmode  none
attr source  receivedPacketFromUpperLayer
scalar SingleCell.ue[1].nic.rlc.um 	rlcPduPacketLossDl:lteAvg 	0
attr source  rlcPduPacketLossDl
attr title  "rlc Packet Loss, lteAvg"
attr unit  ""
scalar SingleCell.ue[1].nic.rlc.um 	rlcPduPacketLossUl:lteAvg 	0
attr source  rlcPduPacketLossUl
attr title  "rlc Packet Loss, lteAvg"
attr unit  ""
scalar SingleCell.ue[1].nic.rlc.um 	rlcPacketLossTotal:lteAvg 	0.63517204565025
attr source  rlcPacketLossTotal
attr title  "rlc Packet Loss, lteAvg"
attr unit  ""
scalar SingleCell.ue[1].nic.rlc.um 	rlcPacketLossDl:lteAvg 	0.63540477016445
attr source  rlcPacketLossDl
attr title  "rlc Packet Loss, lteAvg"
attr unit  ""
scalar SingleCell.ue[1].nic.rlc.um 	rlcPacketLossUl:lteAvg 	0
attr source  rlcPacketLossUl
attr title  "rlc Packet Loss, lteAvg"
attr unit  ""
scalar SingleCell.ue[1].nic.rlc.um 	rlcPduThroughputUl:lteRate 	19.07527979914
attr source  rlcPduThroughputUl
attr title  "Throughput at the rlc layer UL, lteRate"
attr unit  Bps
scalar SingleCell.ue[1].nic.rlc.um 	rlcPduDelayUl:lteAvg 	0.004
attr source  rlcPduDelayUl
attr title  "Delay at the rlc layer UL, lteAvg"
attr unit  s
scalar SingleCell.ue[1].nic.rlc.um 	rlcPduThroughputDl:lteRate 	512984.5255257
attr source  rlcPduThroughputDl
attr title  "Throughput at the rlc layer DL, lteRate"
attr unit  Bps
scalar SingleCell.ue[1].nic.rlc.um 	rlcPduDelayDl:lteAvg 	0.0040015014688315
attr source  rlcPduDelayDl
attr title  "Delay at the rlc layer UL, lteAvg"
attr unit  s
scalar SingleCell.ue[1].nic.rlc.um 	rlcThroughputUl:lteRate 	18.000765990042
attr source  rlcThroughputUl
attr title  "Throughput at the rlc layer UL, lteRate"
attr unit  Bps
scalar SingleCell.ue[1].nic.rlc.um 	rlcDelayUl:lteAvg 	0.0079787234042553
attr source  rlcDelayUl
attr title  "Delay at the rlc layer UL, lteAvg"
attr unit  s
scalar SingleCell.ue[1].nic.rlc.um 	rlcThroughputDl:lteRate 	512006.6919521
attr source  rlcThroughputDl
attr title  "Throughput at the rlc layer DL, lteRate"
attr unit  Bps
scalar SingleCell.ue[1].nic.rlc.um 	rlcDelayDl:lteAvg 	0.0050000291860139
attr source  rlcDelayDl
attr title  "Delay at the rlc layer UL, lteAvg"
attr unit  s
scalar SingleCell.ue[1].nic.mac 	measuredItbs:mean 	-nan
attr source  measuredItbs
attr title  "TBS index, mean"
attr unit  ""
scalar SingleCell.ue[1].nic.mac 	harqErrorRate_4th_D2D:mean 	-nan
attr source  harqErrorRate_4th_D2D
attr title  "Harq Error Rate D2D, mean"
attr unit  ""
scalar SingleCell.ue[1].nic.mac 	harqErrorRate_4th_Dl:mean 	-nan
attr source  harqErrorRate_4th_Dl
attr title  "Harq Error Rate Dl, mean"
attr unit  ""
scalar SingleCell.ue[1].nic.mac 	harqErrorRate_4th_Ul:mean 	-nan
attr source  harqErrorRate_4th_Ul
attr title  "Harq Error Rate Dl, mean"
attr unit  ""
scalar SingleCell.ue[1].nic.mac 	harqErrorRate_3rd_D2D:mean 	-nan
attr source  harqErrorRate_3rd_D2D
attr title  "Harq Error Rate D2D, mean"
attr unit  ""
scalar SingleCell.ue[1].nic.mac 	harqErrorRate_3rd_Dl:mean 	-nan
attr source  harqErrorRate_3rd_Dl
attr title  "Harq Error Rate Dl, mean"
attr unit  ""
scalar SingleCell.ue[1].nic.mac 	harqErrorRate_3rd_Ul:mean 	-nan
attr source  harqErrorRate_3rd_Ul
attr title  "Harq Error Rate Dl, mean"
attr unit  ""
scalar SingleCell.ue[1].nic.mac 	harqErrorRate_2nd_D2D:mean 	-nan
attr source  harqErrorRate_2nd_D2D
attr title  "Harq Error Rate D2D, mean"
attr unit  ""
scalar SingleCell.ue[1].nic.mac 	harqErrorRate_2nd_Dl:mean 	0
attr source  harqErrorRate_2nd_Dl
attr title  "Harq Error Rate Dl, mean"
attr unit  ""
scalar SingleCell.ue[1].nic.mac 	harqErrorRate_2nd_Ul:mean 	-nan
attr source  harqErrorRate_2nd_Ul
attr title  "Harq Error Rate Dl, mean"
attr unit  ""
scalar SingleCell.ue[1].nic.mac 	harqErrorRate_1st_D2D:mean 	-nan
attr source  harqErrorRate_1st_D2D
attr title  "Harq Error Rate D2D, mean"
attr unit  ""
scalar SingleCell.ue[1].nic.mac 	harqErrorRate_1st_Dl:mean 	0.00025024480470025
attr source  harqErrorRate_1st_Dl
attr title  "Harq Error Rate Dl, mean"
attr unit  ""
scalar SingleCell.ue[1].nic.mac 	harqErrorRate_1st_Ul:mean 	0
attr source  harqErrorRate_1st_Ul
attr title  "Harq Error Rate Dl, mean"
attr unit  ""
scalar SingleCell.ue[1].nic.mac 	harqErrorRateD2D:mean 	-nan
attr source  harqErrorRateD2D
attr title  "Harq Error Rate D2D, mean"
attr unit  ""
scalar SingleCell.ue[1].nic.mac 	harqErrorRateDl:mean 	0.000250182197905
attr source  harqErrorRateDl
attr title  "Harq Error Rate Dl, mean"
attr unit  ""
scalar SingleCell.ue[1].nic.mac 	harqErrorRateUl:mean 	0
attr source  harqErrorRateUl
attr title  "Harq Error Rate Dl, mean"
attr unit  ""
scalar SingleCell.ue[1].nic.mac 	macPacketLossD2D:mean 	-nan
attr source  macPacketLossD2D
attr title  "Mac Packet Loss D2D, mean"
attr unit  ""
scalar SingleCell.ue[1].nic.mac 	macPacketLossDl:mean 	0
attr source  macPacketLossDl
attr title  "Mac Packet Loss, mean"
attr unit  ""
scalar SingleCell.ue[1].nic.mac 	macPacketLossUl:mean 	0
attr source  macPacketLossUl
attr title  "Mac Packet Loss, mean"
attr unit  ""
scalar SingleCell.ue[1].nic.mac 	macCellPacketLossD2D:mean 	-nan
attr source  macCellPacketLossD2D
attr title  "Mac Cell Packet Loss D2D, mean"
attr unit  ""
scalar SingleCell.ue[1].nic.mac 	macCellPacketLossUl:mean 	-nan
attr source  macCellPacketLossUl
attr title  "Mac Cell Packet Loss, mean"
attr unit  ""
scalar SingleCell.ue[1].nic.mac 	macCellPacketLossDl:mean 	-nan
attr source  macCellPacketLossDl
attr title  "Mac Cell Packet Loss, mean"
attr unit  ""
scalar SingleCell.ue[1].nic.mac 	macThroughputDl:lteRate 	513962.3590993
attr source  macThroughputDl
attr title  "Throughput at the MAC layer DL, lteRate"
attr unit  Bps
scalar SingleCell.ue[1].nic.mac 	macDelayDl:lteAvg 	0.0040015014688315
attr source  macDelayDl
attr title  "Delay at the MAC layer UL, lteAvg"
attr unit  s
scalar SingleCell.ue[1].nic.mac 	sentPacketToLowerLayer:count 	92105
attr interpolationmode  none
attr source  sentPacketToLowerLayer
scalar SingleCell.ue[1].nic.mac 	sentPacketToLowerLayer:sum(packetBytes) 	3788
attr interpolationmode  none
attr source  sentPacketToLowerLayer
scalar SingleCell.ue[1].nic.mac 	sentPacketToUpperLayer:count 	92011
attr interpolationmode  none
attr source  sentPacketToUpperLayer
scalar SingleCell.ue[1].nic.mac 	sentPacketToUpperLayer:sum(packetBytes) 	96434422
attr interpolationmode  none
attr source  sentPacketToUpperLayer
scalar SingleCell.ue[1].nic.mac 	receivedPacketFromLowerLayer:count 	154785
attr interpolationmode  none
attr source  receivedPacketFromLowerLayer
scalar SingleCell.ue[1].nic.mac 	receivedPacketFromLowerLayer:sum(packetBytes) 	96644063
attr interpolationmode  none
attr source  receivedPacketFromLowerLayer
scalar SingleCell.ue[1].nic.mac 	receivedPacketFromUpperLayer:count 	195
attr interpolationmode  none
attr source  receivedPacketFromUpperLayer
scalar SingleCell.ue[1].nic.mac 	receivedPacketFromUpperLayer:sum(packetBytes) 	6970
attr interpolationmode  none
attr source  receivedPacketFromUpperLayer
scalar SingleCell.ue[1].nic.mac 	averageCqiDl:lteAvg 	14.991983379381
attr source  averageCqiDl
attr title  "Average Cqi reported in DL, lteAvg"
attr unit  cqi
scalar SingleCell.ue[1].networkLayer.arp 	failedARPResolution:count 	0
attr title  "ARP failed resolutions, count"
scalar SingleCell.ue[1].networkLayer.arp 	completedARPResolution:count 	0
attr title  "ARP completed resolutions, count"
scalar SingleCell.ue[1].networkLayer.arp 	initiatedARPResolution:count 	0
attr title  "ARP initiated resolutions, count"
scalar SingleCell.ue[1].networkLayer.arp 	sentReply:count 	0
attr title  "ARP replies sent, count"
scalar SingleCell.ue[1].networkLayer.arp 	sentReq:count 	0
attr title  "ARP request sent, count"
statistic SingleCell.ue[2].udpApp[0] 	endToEndDelay:stats
field count 32
field mean 4.01784375
field stddev 0.016100710012416
field sum 128.571
field sqrsum 516.586225
field min 4.01
field max 4.102
attr interpolationmode  none
attr source  segmentCompletionTime
attr title  "end-to-end delay, stats"
statistic SingleCell.ue[2].udpApp[1] 	endToEndDelay:stats
field count 32
field mean 4.01690625
field stddev 0.012632164208153
field sum 128.541
field sqrsum 516.342093
field min 4.006
field max 4.075
attr interpolationmode  none
attr source  segmentCompletionTime
attr title  "end-to-end delay, stats"
scalar SingleCell.ue[2].udp 	droppedPkBadChecksum:count 	0
attr interpolationmode  none
attr title  "packets dropped (checksum error), count"
scalar SingleCell.ue[2].udp 	droppedPkWrongPort:count 	0
attr interpolationmode  none
attr title  "packets dropped (wrong port), count"
scalar SingleCell.ue[2].udp 	passedUpPk:count 	64466
attr interpolationmode  none
attr title  "packets passed up, count"
scalar SingleCell.ue[2].udp 	rcvdPk:count 	64466
attr interpolationmode  none
attr source  rcvdPk
attr title  "packets received, count"
scalar SingleCell.ue[2].udp 	rcvdPk:sum(packetBytes) 	64981728
attr interpolationmode  none
attr source  rcvdPk
attr title  "packets received, sum(packetBytes)"
scalar SingleCell.ue[2].udp 	sentPk:count 	66
attr interpolationmode  none
attr source  sentPk
attr title  "packets sent, count"
scalar SingleCell.ue[2].udp 	sentPk:sum(packetBytes) 	990
attr interpolationmode  none
attr source  sentPk
attr title  "packets sent, sum(packetBytes)"
scalar SingleCell.ue[2].nic.pdcpRrc 	sentPacketToLowerLayer:count 	66
attr interpolationmode  none
attr source  sentPacketToLowerLayer
scalar SingleCell.ue[2].nic.pdcpRrc 	sentPacketToLowerLayer:sum(packetBytes) 	2376
attr interpolationmode  none
attr source  sentPacketToLowerLayer
scalar SingleCell.ue[2].nic.pdcpRrc 	sentPacketToUpperLayer:count 	64466
attr interpolationmode  none
attr source  sentPacketToUpperLayer
scalar SingleCell.ue[2].nic.pdcpRrc 	sentPacketToUpperLayer:sum(packetBytes) 	66271048
attr interpolationmode  none
attr source  sentPacketToUpperLayer
scalar SingleCell.ue[2].nic.pdcpRrc 	receivedPacketFromLowerLayer:count 	64466
attr interpolationmode  none
attr source  receivedPacketFromLowerLayer
scalar SingleCell.ue[2].nic.pdcpRrc 	receivedPacketFromLowerLayer:sum(packetBytes) 	66335514
attr interpolationmode  none
attr source  receivedPacketFromLowerLayer
scalar SingleCell.ue[2].nic.pdcpRrc 	receivedPacketFromUpperLayer:count 	66
attr interpolationmode  none
attr source  receivedPacketFromUpperLayer
scalar SingleCell.ue[2].nic.pdcpRrc 	receivedPacketFromUpperLayer:sum(packetBytes) 	2310
attr interpolationmode  none
attr source  receivedPacketFromUpperLayer
scalar SingleCell.ue[2].nic.rlc.um 	rlcPduPacketLossDl:lteAvg 	0
attr source  rlcPduPacketLossDl
attr title  "rlc Packet Loss, lteAvg"
attr unit  ""
scalar SingleCell.ue[2].nic.rlc.um 	rlcPduPacketLossUl:lteAvg 	0
attr source  rlcPduPacketLossUl
attr title  "rlc Packet Loss, lteAvg"
attr unit  ""
scalar SingleCell.ue[2].nic.rlc.um 	rlcPacketLossTotal:lteAvg 	0.74853188164647
attr source  rlcPacketLossTotal
attr title  "rlc Packet Loss, lteAvg"
attr unit  ""
scalar SingleCell.ue[2].nic.rlc.um 	rlcPacketLossDl:lteAvg 	0.74872444505077
attr source  rlcPacketLossDl
attr title  "rlc Packet Loss, lteAvg"
attr unit  ""
scalar SingleCell.ue[2].nic.rlc.um 	rlcPacketLossUl:lteAvg 	0
attr source  rlcPacketLossUl
attr title  "rlc Packet Loss, lteAvg"
attr unit  ""
scalar SingleCell.ue[2].nic.rlc.um 	rlcPduThroughputUl:lteRate 	20.278170964367
attr source  rlcPduThroughputUl
attr title  "Throughput at the rlc layer UL, lteRate"
attr unit  Bps
scalar SingleCell.ue[2].nic.rlc.um 	rlcPduDelayUl:lteAvg 	0.0040615384615385
attr source  rlcPduDelayUl
attr title  "Delay at the rlc layer UL, lteAvg"
attr unit  s
scalar SingleCell.ue[2].nic.rlc.um 	rlcPduThroughputDl:lteRate 	511125.75587389
attr source  rlcPduThroughputDl
attr title  "Throughput at the rlc layer DL, lteRate"
attr unit  Bps
scalar SingleCell.ue[2].nic.rlc.um 	rlcPduDelayDl:lteAvg 	0.0040047228289724
attr source  rlcPduDelayDl
attr title  "Delay at the rlc layer UL, lteAvg"
attr unit  s
scalar SingleCell.ue[2].nic.rlc.um 	rlcThroughputUl:lteRate 	18.278750952018
attr source  rlcThroughputUl
attr title  "Throughput at the rlc layer UL, lteRate"
attr unit  Bps
scalar SingleCell.ue[2].nic.rlc.um 	rlcDelayUl:lteAvg 	0.016151515151515
attr source  rlcDelayUl
attr title  "Delay at the rlc layer UL, lteAvg"
attr unit  s
scalar SingleCell.ue[2].nic.rlc.um 	rlcThroughputDl:lteRate 	510343.84760967
attr source  rlcThroughputDl
attr title  "Throughput at the rlc layer DL, lteRate"
attr unit  Bps
scalar SingleCell.ue[2].nic.rlc.um 	rlcDelayDl:lteAvg 	0.0050046685547036
attr source  rlcDelayDl
attr title  "Delay at the rlc layer UL, lteAvg"
attr unit  s
scalar SingleCell.ue[2].nic.mac 	measuredItbs:mean 	-nan
attr source  measuredItbs
attr title  "TBS index, mean"
attr unit  ""
scalar SingleCell.ue[2].nic.mac 	harqErrorRate_4th_D2D:mean 	-nan
attr source  harqErrorRate_4th_D2D
attr title  "Harq Error Rate D2D, mean"
attr unit  ""
scalar SingleCell.ue[2].nic.mac 	harqErrorRate_4th_Dl:mean 	-nan
attr source  harqErrorRate_4th_Dl
attr title  "Harq Error Rate Dl, mean"
attr unit  ""
scalar SingleCell.ue[2].nic.mac 	harqErrorRate_4th_Ul:mean 	-nan
attr source  harqErrorRate_4th_Ul
attr title  "Harq Error Rate Dl, mean"
attr unit  ""
scalar SingleCell.ue[2].nic.mac 	harqErrorRate_3rd_D2D:mean 	-nan
attr source  harqErrorRate_3rd_D2D
attr title  "Harq Error Rate D2D, mean"
attr unit  ""
scalar SingleCell.ue[2].nic.mac 	harqErrorRate_3rd_Dl:mean 	-nan
attr source  harqErrorRate_3rd_Dl
attr title  "Harq Error Rate Dl, mean"
attr unit  ""
scalar SingleCell.ue[2].nic.mac 	harqErrorRate_3rd_Ul:mean 	-nan
attr source  harqErrorRate_3rd_Ul
attr title  "Harq Error Rate Dl, mean"
attr unit  ""
scalar SingleCell.ue[2].nic.mac 	harqErrorRate_2nd_D2D:mean 	-nan
attr source  harqErrorRate_2nd_D2D
attr title  "Harq Error Rate D2D, mean"
attr unit  ""
scalar SingleCell.ue[2].nic.mac 	harqErrorRate_2nd_Dl:mean 	0
attr source  harqErrorRate_2nd_Dl
attr title  "Harq Error Rate Dl, mean"
attr unit  ""
scalar SingleCell.ue[2].nic.mac 	harqErrorRate_2nd_Ul:mean 	0
attr source  harqErrorRate_2nd_Ul
attr title  "Harq Error Rate Dl, mean"
attr unit  ""
scalar SingleCell.ue[2].nic.mac 	harqErrorRate_1st_D2D:mean 	-nan
attr source  harqErrorRate_1st_D2D
attr title  "Harq Error Rate D2D, mean"
attr unit  ""
scalar SingleCell.ue[2].nic.mac 	harqErrorRate_1st_Dl:mean 	0.00078713816242596
attr source  harqErrorRate_1st_Dl
attr title  "Harq Error Rate Dl, mean"
attr unit  ""
scalar SingleCell.ue[2].nic.mac 	harqErrorRate_1st_Ul:mean 	0.0061728395061728
attr source  harqErrorRate_1st_Ul
attr title  "Harq Error Rate Dl, mean"
attr unit  ""
scalar SingleCell.ue[2].nic.mac 	harqErrorRateD2D:mean 	-nan
attr source  harqErrorRateD2D
attr title  "Harq Error Rate D2D, mean"
attr unit  ""
scalar SingleCell.ue[2].nic.mac 	harqErrorRateDl:mean 	0.0007865190632558
attr source  harqErrorRateDl
attr title  "Harq Error Rate Dl, mean"
attr unit  ""
scalar SingleCell.ue[2].nic.mac 	harqErrorRateUl:mean 	0.0061349693251534
attr source  harqErrorRateUl
attr title  "Harq Error Rate Dl, mean"
attr unit  ""
scalar SingleCell.ue[2].nic.mac 	macPacketLossD2D:mean 	-nan
attr source  macPacketLossD2D
attr title  "Mac Packet Loss D2D, mean"
attr unit  ""
scalar SingleCell.ue[2].nic.mac 	macPacketLossDl:mean 	0
attr source  macPacketLossDl
attr title  "Mac Packet Loss, mean"
attr unit  ""
scalar SingleCell.ue[2].nic.mac 	macPacketLossUl:mean 	0
attr source  macPacketLossUl
attr title  "Mac Packet Loss, mean"
attr unit  ""
scalar SingleCell.ue[2].nic.mac 	macCellPacketLossD2D:mean 	-nan
attr source  macCellPacketLossD2D
attr title  "Mac Cell Packet Loss D2D, mean"
attr unit  ""
scalar SingleCell.ue[2].nic.mac 	macCellPacketLossUl:mean 	-nan
attr source  macCellPacketLossUl
attr title  "Mac Cell Packet Loss, mean"
attr unit  ""
scalar SingleCell.ue[2].nic.mac 	macCellPacketLossDl:mean 	-nan
attr source  macCellPacketLossDl
attr title  "Mac Cell Packet Loss, mean"
attr unit  ""
scalar SingleCell.ue[2].nic.mac 	macThroughputDl:lteRate 	511907.66413811
attr source  macThroughputDl
attr title  "Throughput at the MAC layer DL, lteRate"
attr unit  Bps
scalar SingleCell.ue[2].nic.mac 	macDelayDl:lteAvg 	0.0040047228289724
attr source  macDelayDl
attr title  "Delay at the MAC layer UL, lteAvg"
attr unit  s
scalar SingleCell.ue[2].nic.mac 	sentPacketToLowerLayer:count 	51180
attr interpolationmode  none
attr source  sentPacketToLowerLayer
scalar SingleCell.ue[2].nic.mac 	sentPacketToLowerLayer:sum(packetBytes) 	3000
attr interpolationmode  none
attr source  sentPacketToLowerLayer
scalar SingleCell.ue[2].nic.mac 	sentPacketToUpperLayer:count 	50979
attr interpolationmode  none
attr source  sentPacketToUpperLayer
scalar SingleCell.ue[2].nic.mac 	sentPacketToUpperLayer:sum(packetBytes) 	66437148
attr interpolationmode  none
attr source  sentPacketToUpperLayer
scalar SingleCell.ue[2].nic.mac 	receivedPacketFromLowerLayer:count 	53685
attr interpolationmode  none
attr source  receivedPacketFromLowerLayer
scalar SingleCell.ue[2].nic.mac 	receivedPacketFromLowerLayer:sum(packetBytes) 	66594516
attr interpolationmode  none
attr source  receivedPacketFromLowerLayer
scalar SingleCell.ue[2].nic.mac 	receivedPacketFromUpperLayer:count 	228
attr interpolationmode  none
attr source  receivedPacketFromUpperLayer
scalar SingleCell.ue[2].nic.mac 	receivedPacketFromUpperLayer:sum(packetBytes) 	5012
attr interpolationmode  none
attr source  receivedPacketFromUpperLayer
scalar SingleCell.ue[2].nic.mac 	averageCqiDl:lteAvg 	14.995517017637
attr source  averageCqiDl
attr title  "Average Cqi reported in DL, lteAvg"
attr unit  cqi
scalar SingleCell.ue[2].networkLayer.arp 	failedARPResolution:count 	0
attr title  "ARP failed resolutions, count"
scalar SingleCell.ue[2].networkLayer.arp 	completedARPResolution:count 	0
attr title  "ARP completed resolutions, count"
scalar SingleCell.ue[2].networkLayer.arp 	initiatedARPResolution:count 	0
attr title  "ARP initiated resolutions, count"
scalar SingleCell.ue[2].networkLayer.arp 	sentReply:count 	0
attr title  "ARP replies sent, count"
scalar SingleCell.ue[2].networkLayer.arp 	sentReq:count 	0
attr title  "ARP request sent, count"
