version 2
run Scenario_2-0-20190319-20:30:10-25303
attr configname Scenario_2
attr datetime 20190319-20:30:10
attr experiment Scenario_2
attr inifile omnetpp.ini
attr iterationvars "$0=8, $1=true"
attr iterationvarsf 8,true-
attr measurement "$0=8, $1=true"
attr network SingleCell
attr processid 25303
attr repetition 0
attr replication #0
attr resultdir results
attr runnumber 0
attr seedset 0
param **.bufferSize 7s
param **.channelControl.carrierFrequency 2100e+6Hz
param **.d2d (true)
param **.fbDelay 1
param **.feedbackComputation "xmldoc(\"config_channel.xml\")"
param **.mac.maxBytesPerTti 1KiB
param **.mac.queueSize 1MiB
param **.mac.schedulingDisciplineDl "\"MAXCI\""
param **.mac.schedulingDisciplineUl "\"MAXCI\""
param **.nic.phy.channelModel "xmldoc(\"config_channel.xml\")"
param **.packetInt (8ms)
param **.routingRecorder.enabled false
param **.server.udpApp[*].typename "\"UDPVideoStreamServer\""
param **.server.udpApp[0].viewID 1
param **.server.udpApp[1].viewID 2
param **.ue[*].macCellId 1
param **.ue[*].masterId 1
param **.ue[*].udpApp[*].typename "\"UDPVideoStreamClient\""
param **.ue[*].udpApp[0].viewID 1
param **.ue[*].udpApp[1].viewID 2
param **.ue[0].udpApp[0].startTime 2s
param **.ue[0].udpApp[1].startTime 3s
param **.ue[1].udpApp[0].startTime 12s
param **.ue[1].udpApp[1].startTime 13s
param **.ue[2].udpApp[0].startTime 70s
param **.ue[2].udpApp[1].startTime 71s
param **.ue[3].udpApp[0].startTime 80s
param **.ue[3].udpApp[1].startTime 81s
param **.ue[4].udpApp[0].startTime 120s
param **.ue[4].udpApp[1].startTime 121s
param *.numUe 3
param *.server.numUdpApps 2
param *.ue[*].mobility.constraintAreaMaxX 486m
param *.ue[*].mobility.constraintAreaMaxY 226m
param *.ue[*].mobility.constraintAreaMinX 457m
param *.ue[*].mobility.constraintAreaMinY 202m
param *.ue[*].mobility.initFromDisplayString false
param *.ue[*].mobility.initialX uniform(457m,486m)
param *.ue[*].mobility.initialY uniform(202m,226m)
param *.ue[*].mobility.initialZ 0
param *.ue[*].mobility.speed 1mps
param *.ue[*].mobilityType "\"LinearMobility\""
param *.ue[*].numUdpApps 2

scalar SingleCell.server.networkLayer.arp 	failedARPResolution:count 	0
attr title  "ARP failed resolutions, count"
scalar SingleCell.server.networkLayer.arp 	completedARPResolution:count 	0
attr title  "ARP completed resolutions, count"
scalar SingleCell.server.networkLayer.arp 	initiatedARPResolution:count 	0
attr title  "ARP initiated resolutions, count"
scalar SingleCell.server.networkLayer.arp 	sentReply:count 	0
attr title  "ARP replies sent, count"
scalar SingleCell.server.networkLayer.arp 	sentReq:count 	0
attr title  "ARP request sent, count"
scalar SingleCell.server.lo0.lo 	droppedPkBitError:count 	0
attr interpolationmode  none
attr source  dropPkBitError
attr title  "packets dropped/bit error, count"
scalar SingleCell.server.lo0.lo 	droppedPkBitError:sum(packetBytes) 	0
attr interpolationmode  none
attr source  dropPkBitError
attr title  "packets dropped/bit error, sum(packetBytes)"
scalar SingleCell.server.lo0.lo 	rcvdPkFromHL:count 	0
attr interpolationmode  none
attr source  packetReceivedFromUpper
attr title  "packets received from higher layer, count"
scalar SingleCell.server.lo0.lo 	rcvdPkFromHL:sum(packetBytes) 	0
attr interpolationmode  none
attr source  packetReceivedFromUpper
attr title  "packets received from higher layer, sum(packetBytes)"
scalar SingleCell.server.lo0.lo 	passedUpPk:count 	0
attr interpolationmode  none
attr source  packetSentToUpper
attr title  "packets passed to higher layer, count"
scalar SingleCell.server.lo0.lo 	passedUpPk:sum(packetBytes) 	0
attr interpolationmode  none
attr source  packetSentToUpper
attr title  "packets passed to higher layer, sum(packetBytes)"
statistic SingleCell.server.ppp[0].queue 	queueingTime:histogram
field count 119824
field mean 2.3786757243965e-07
field stddev 4.5862702305116e-07
field sum 0.028502244000008
field sqrsum 3.1983179184006e-08
field min 0
field max 2.484e-06
attr interpolationmode  none
attr title  "queueing time, histogram"
bin	-INF	0
bin	-0.5	0
bin	-0.46666666666667	0
bin	-0.43333333333333	0
bin	-0.4	0
bin	-0.36666666666667	0
bin	-0.33333333333333	0
bin	-0.3	0
bin	-0.26666666666667	0
bin	-0.23333333333333	0
bin	-0.2	0
bin	-0.16666666666667	0
bin	-0.13333333333333	0
bin	-0.1	0
bin	-0.066666666666667	0
bin	-0.033333333333333	0
bin	0	119824
bin	0.033333333333333	0
bin	0.066666666666667	0
bin	0.1	0
bin	0.13333333333333	0
bin	0.16666666666667	0
bin	0.2	0
bin	0.23333333333333	0
bin	0.26666666666667	0
bin	0.3	0
bin	0.33333333333333	0
bin	0.36666666666667	0
bin	0.4	0
bin	0.43333333333333	0
bin	0.46666666666667	0
bin	0.5	0
scalar SingleCell.server.ppp[0].queue 	dropPk:count 	0
attr interpolationmode  none
attr source  dropPkByQueue
attr title  "dropped packets, count"
scalar SingleCell.server.ppp[0].queue 	dropPk:sum(packetBytes) 	0
attr interpolationmode  none
attr source  dropPkByQueue
attr title  "dropped packets, sum(packetBytes)"
scalar SingleCell.server.ppp[0].queue 	queueLength:max 	3
attr interpolationmode  sample-hold
attr title  "queue length, max"
scalar SingleCell.server.ppp[0].queue 	queueLength:timeavg 	0.00014251122000004
attr interpolationmode  sample-hold
attr title  "queue length, timeavg"
scalar SingleCell.server.ppp[0].queue 	rcvdPk:count 	119824
attr interpolationmode  none
attr title  "received packets, count"
scalar SingleCell.server.ppp[0].queue 	rcvdPk:sum(packetBytes) 	123179072
attr interpolationmode  none
attr title  "received packets, sum(packetBytes)"
scalar SingleCell.server.ppp[0].ppp 	txState:timeavg 	0.0004960713599991
attr interpolationmode  sample-hold
attr title  "tx state, timeavg"
scalar SingleCell.server.ppp[0].ppp 	droppedPkIfaceDown:count 	0
attr interpolationmode  none
attr source  dropPkIfaceDown
attr title  "packets dropped/interface down, count"
scalar SingleCell.server.ppp[0].ppp 	droppedPkIfaceDown:sum(packetBytes) 	0
attr interpolationmode  none
attr source  dropPkIfaceDown
attr title  "packets dropped/interface down, sum(packetBytes)"
scalar SingleCell.server.ppp[0].ppp 	droppedPkBitError:count 	0
attr interpolationmode  none
attr source  dropPkBitError
attr title  "packets dropped/bit error, count"
scalar SingleCell.server.ppp[0].ppp 	droppedPkBitError:sum(packetBytes) 	0
attr interpolationmode  none
attr source  dropPkBitError
attr title  "packets dropped/bit error, sum(packetBytes)"
scalar SingleCell.server.ppp[0].ppp 	rxPkOk:count 	121
attr interpolationmode  none
attr source  rxPkOk
attr title  "packets received OK, count"
scalar SingleCell.server.ppp[0].ppp 	rxPkOk:sum(packetBytes) 	5082
attr interpolationmode  none
attr source  rxPkOk
attr title  "packets received OK, sum(packetBytes)"
scalar SingleCell.server.ppp[0].ppp 	txPk:count 	119824
attr interpolationmode  none
attr source  packetSentToLower
attr title  "packets transmitted, count"
scalar SingleCell.server.ppp[0].ppp 	txPk:sum(packetBytes) 	124017840
attr interpolationmode  none
attr source  packetSentToLower
attr title  "packets transmitted, sum(packetBytes)"
scalar SingleCell.server.ppp[0].ppp 	rcvdPkFromHL:count 	119824
attr interpolationmode  none
attr source  packetReceivedFromUpper
attr title  "packets received from higher layer, count"
scalar SingleCell.server.ppp[0].ppp 	rcvdPkFromHL:sum(packetBytes) 	123179072
attr interpolationmode  none
attr source  packetReceivedFromUpper
attr title  "packets received from higher layer, sum(packetBytes)"
scalar SingleCell.server.ppp[0].ppp 	passedUpPk:count 	121
attr interpolationmode  none
attr source  packetSentToUpper
attr title  "packets passed to higher layer, count"
scalar SingleCell.server.ppp[0].ppp 	passedUpPk:sum(packetBytes) 	4235
attr interpolationmode  none
attr source  packetSentToUpper
attr title  "packets passed to higher layer, sum(packetBytes)"
scalar SingleCell.server.udpApp[0] 	reqStreamBytes:count 	53
attr interpolationmode  none
attr title  "requested stream bytes, count"
scalar SingleCell.server.udpApp[0] 	reqStreamBytes:sum 	53000000
attr interpolationmode  none
attr title  "requested stream bytes, sum"
scalar SingleCell.server.udpApp[0] 	sentPk:count 	52936
attr interpolationmode  none
attr source  sentPk
attr title  "packets sent, count"
scalar SingleCell.server.udpApp[0] 	sentPk:sum(packetBytes) 	52936000
attr interpolationmode  none
attr source  sentPk
attr title  "packets sent, sum(packetBytes)"
scalar SingleCell.server.udpApp[1] 	reqStreamBytes:count 	68
attr interpolationmode  none
attr title  "requested stream bytes, count"
scalar SingleCell.server.udpApp[1] 	reqStreamBytes:sum 	68000000
attr interpolationmode  none
attr title  "requested stream bytes, sum"
scalar SingleCell.server.udpApp[1] 	sentPk:count 	66888
attr interpolationmode  none
attr source  sentPk
attr title  "packets sent, count"
scalar SingleCell.server.udpApp[1] 	sentPk:sum(packetBytes) 	66888000
attr interpolationmode  none
attr source  sentPk
attr title  "packets sent, sum(packetBytes)"
scalar SingleCell.server.udp 	droppedPkBadChecksum:count 	0
attr interpolationmode  none
attr title  "packets dropped (checksum error), count"
scalar SingleCell.server.udp 	droppedPkWrongPort:count 	0
attr interpolationmode  none
attr title  "packets dropped (wrong port), count"
scalar SingleCell.server.udp 	passedUpPk:count 	121
attr interpolationmode  none
attr title  "packets passed up, count"
scalar SingleCell.server.udp 	rcvdPk:count 	121
attr interpolationmode  none
attr source  rcvdPk
attr title  "packets received, count"
scalar SingleCell.server.udp 	rcvdPk:sum(packetBytes) 	1815
attr interpolationmode  none
attr source  rcvdPk
attr title  "packets received, sum(packetBytes)"
scalar SingleCell.server.udp 	sentPk:count 	119824
attr interpolationmode  none
attr source  sentPk
attr title  "packets sent, count"
scalar SingleCell.server.udp 	sentPk:sum(packetBytes) 	120782592
attr interpolationmode  none
attr source  sentPk
attr title  "packets sent, sum(packetBytes)"
scalar SingleCell.router.networkLayer.arp 	failedARPResolution:count 	0
attr title  "ARP failed resolutions, count"
scalar SingleCell.router.networkLayer.arp 	completedARPResolution:count 	0
attr title  "ARP completed resolutions, count"
scalar SingleCell.router.networkLayer.arp 	initiatedARPResolution:count 	0
attr title  "ARP initiated resolutions, count"
scalar SingleCell.router.networkLayer.arp 	sentReply:count 	0
attr title  "ARP replies sent, count"
scalar SingleCell.router.networkLayer.arp 	sentReq:count 	0
attr title  "ARP request sent, count"
scalar SingleCell.router.lo0.lo 	droppedPkBitError:count 	0
attr interpolationmode  none
attr source  dropPkBitError
attr title  "packets dropped/bit error, count"
scalar SingleCell.router.lo0.lo 	droppedPkBitError:sum(packetBytes) 	0
attr interpolationmode  none
attr source  dropPkBitError
attr title  "packets dropped/bit error, sum(packetBytes)"
scalar SingleCell.router.lo0.lo 	rcvdPkFromHL:count 	0
attr interpolationmode  none
attr source  packetReceivedFromUpper
attr title  "packets received from higher layer, count"
scalar SingleCell.router.lo0.lo 	rcvdPkFromHL:sum(packetBytes) 	0
attr interpolationmode  none
attr source  packetReceivedFromUpper
attr title  "packets received from higher layer, sum(packetBytes)"
scalar SingleCell.router.lo0.lo 	passedUpPk:count 	0
attr interpolationmode  none
attr source  packetSentToUpper
attr title  "packets passed to higher layer, count"
scalar SingleCell.router.lo0.lo 	passedUpPk:sum(packetBytes) 	0
attr interpolationmode  none
attr source  packetSentToUpper
attr title  "packets passed to higher layer, sum(packetBytes)"
statistic SingleCell.router.ppp[0].queue 	queueingTime:histogram
field count 121
field mean 0
field stddev 0
field sum 0
field sqrsum 0
field min 0
field max 0
attr interpolationmode  none
attr title  "queueing time, histogram"
bin	-INF	0
bin	-0.5	0
bin	-0.46666666666667	0
bin	-0.43333333333333	0
bin	-0.4	0
bin	-0.36666666666667	0
bin	-0.33333333333333	0
bin	-0.3	0
bin	-0.26666666666667	0
bin	-0.23333333333333	0
bin	-0.2	0
bin	-0.16666666666667	0
bin	-0.13333333333333	0
bin	-0.1	0
bin	-0.066666666666667	0
bin	-0.033333333333333	0
bin	0	121
bin	0.033333333333333	0
bin	0.066666666666667	0
bin	0.1	0
bin	0.13333333333333	0
bin	0.16666666666667	0
bin	0.2	0
bin	0.23333333333333	0
bin	0.26666666666667	0
bin	0.3	0
bin	0.33333333333333	0
bin	0.36666666666667	0
bin	0.4	0
bin	0.43333333333333	0
bin	0.46666666666667	0
bin	0.5	0
scalar SingleCell.router.ppp[0].queue 	dropPk:count 	0
attr interpolationmode  none
attr source  dropPkByQueue
attr title  "dropped packets, count"
scalar SingleCell.router.ppp[0].queue 	dropPk:sum(packetBytes) 	0
attr interpolationmode  none
attr source  dropPkByQueue
attr title  "dropped packets, sum(packetBytes)"
scalar SingleCell.router.ppp[0].queue 	queueLength:max 	0
attr interpolationmode  sample-hold
attr title  "queue length, max"
scalar SingleCell.router.ppp[0].queue 	queueLength:timeavg 	0
attr interpolationmode  sample-hold
attr title  "queue length, timeavg"
scalar SingleCell.router.ppp[0].queue 	rcvdPk:count 	121
attr interpolationmode  none
attr title  "received packets, count"
scalar SingleCell.router.ppp[0].queue 	rcvdPk:sum(packetBytes) 	4235
attr interpolationmode  none
attr title  "received packets, sum(packetBytes)"
scalar SingleCell.router.ppp[0].ppp 	txState:timeavg 	2.0328e-08
attr interpolationmode  sample-hold
attr title  "tx state, timeavg"
scalar SingleCell.router.ppp[0].ppp 	droppedPkIfaceDown:count 	0
attr interpolationmode  none
attr source  dropPkIfaceDown
attr title  "packets dropped/interface down, count"
scalar SingleCell.router.ppp[0].ppp 	droppedPkIfaceDown:sum(packetBytes) 	0
attr interpolationmode  none
attr source  dropPkIfaceDown
attr title  "packets dropped/interface down, sum(packetBytes)"
scalar SingleCell.router.ppp[0].ppp 	droppedPkBitError:count 	0
attr interpolationmode  none
attr source  dropPkBitError
attr title  "packets dropped/bit error, count"
scalar SingleCell.router.ppp[0].ppp 	droppedPkBitError:sum(packetBytes) 	0
attr interpolationmode  none
attr source  dropPkBitError
attr title  "packets dropped/bit error, sum(packetBytes)"
scalar SingleCell.router.ppp[0].ppp 	rxPkOk:count 	119824
attr interpolationmode  none
attr source  rxPkOk
attr title  "packets received OK, count"
scalar SingleCell.router.ppp[0].ppp 	rxPkOk:sum(packetBytes) 	124017840
attr interpolationmode  none
attr source  rxPkOk
attr title  "packets received OK, sum(packetBytes)"
scalar SingleCell.router.ppp[0].ppp 	txPk:count 	121
attr interpolationmode  none
attr source  packetSentToLower
attr title  "packets transmitted, count"
scalar SingleCell.router.ppp[0].ppp 	txPk:sum(packetBytes) 	5082
attr interpolationmode  none
attr source  packetSentToLower
attr title  "packets transmitted, sum(packetBytes)"
scalar SingleCell.router.ppp[0].ppp 	rcvdPkFromHL:count 	121
attr interpolationmode  none
attr source  packetReceivedFromUpper
attr title  "packets received from higher layer, count"
scalar SingleCell.router.ppp[0].ppp 	rcvdPkFromHL:sum(packetBytes) 	4235
attr interpolationmode  none
attr source  packetReceivedFromUpper
attr title  "packets received from higher layer, sum(packetBytes)"
scalar SingleCell.router.ppp[0].ppp 	passedUpPk:count 	119824
attr interpolationmode  none
attr source  packetSentToUpper
attr title  "packets passed to higher layer, count"
scalar SingleCell.router.ppp[0].ppp 	passedUpPk:sum(packetBytes) 	123179072
attr interpolationmode  none
attr source  packetSentToUpper
attr title  "packets passed to higher layer, sum(packetBytes)"
statistic SingleCell.router.ppp[1].queue 	queueingTime:histogram
field count 119824
field mean 0
field stddev 0
field sum 0
field sqrsum 0
field min 0
field max 0
attr interpolationmode  none
attr title  "queueing time, histogram"
bin	-INF	0
bin	-0.5	0
bin	-0.46666666666667	0
bin	-0.43333333333333	0
bin	-0.4	0
bin	-0.36666666666667	0
bin	-0.33333333333333	0
bin	-0.3	0
bin	-0.26666666666667	0
bin	-0.23333333333333	0
bin	-0.2	0
bin	-0.16666666666667	0
bin	-0.13333333333333	0
bin	-0.1	0
bin	-0.066666666666667	0
bin	-0.033333333333333	0
bin	0	119824
bin	0.033333333333333	0
bin	0.066666666666667	0
bin	0.1	0
bin	0.13333333333333	0
bin	0.16666666666667	0
bin	0.2	0
bin	0.23333333333333	0
bin	0.26666666666667	0
bin	0.3	0
bin	0.33333333333333	0
bin	0.36666666666667	0
bin	0.4	0
bin	0.43333333333333	0
bin	0.46666666666667	0
bin	0.5	0
scalar SingleCell.router.ppp[1].queue 	dropPk:count 	0
attr interpolationmode  none
attr source  dropPkByQueue
attr title  "dropped packets, count"
scalar SingleCell.router.ppp[1].queue 	dropPk:sum(packetBytes) 	0
attr interpolationmode  none
attr source  dropPkByQueue
attr title  "dropped packets, sum(packetBytes)"
scalar SingleCell.router.ppp[1].queue 	queueLength:max 	0
attr interpolationmode  sample-hold
attr title  "queue length, max"
scalar SingleCell.router.ppp[1].queue 	queueLength:timeavg 	0
attr interpolationmode  sample-hold
attr title  "queue length, timeavg"
scalar SingleCell.router.ppp[1].queue 	rcvdPk:count 	119824
attr interpolationmode  none
attr title  "received packets, count"
scalar SingleCell.router.ppp[1].queue 	rcvdPk:sum(packetBytes) 	123179072
attr interpolationmode  none
attr title  "received packets, sum(packetBytes)"
scalar SingleCell.router.ppp[1].ppp 	txState:timeavg 	0.0004960713599991
attr interpolationmode  sample-hold
attr title  "tx state, timeavg"
scalar SingleCell.router.ppp[1].ppp 	droppedPkIfaceDown:count 	0
attr interpolationmode  none
attr source  dropPkIfaceDown
attr title  "packets dropped/interface down, count"
scalar SingleCell.router.ppp[1].ppp 	droppedPkIfaceDown:sum(packetBytes) 	0
attr interpolationmode  none
attr source  dropPkIfaceDown
attr title  "packets dropped/interface down, sum(packetBytes)"
scalar SingleCell.router.ppp[1].ppp 	droppedPkBitError:count 	0
attr interpolationmode  none
attr source  dropPkBitError
attr title  "packets dropped/bit error, count"
scalar SingleCell.router.ppp[1].ppp 	droppedPkBitError:sum(packetBytes) 	0
attr interpolationmode  none
attr source  dropPkBitError
attr title  "packets dropped/bit error, sum(packetBytes)"
scalar SingleCell.router.ppp[1].ppp 	rxPkOk:count 	121
attr interpolationmode  none
attr source  rxPkOk
attr title  "packets received OK, count"
scalar SingleCell.router.ppp[1].ppp 	rxPkOk:sum(packetBytes) 	5082
attr interpolationmode  none
attr source  rxPkOk
attr title  "packets received OK, sum(packetBytes)"
scalar SingleCell.router.ppp[1].ppp 	txPk:count 	119824
attr interpolationmode  none
attr source  packetSentToLower
attr title  "packets transmitted, count"
scalar SingleCell.router.ppp[1].ppp 	txPk:sum(packetBytes) 	124017840
attr interpolationmode  none
attr source  packetSentToLower
attr title  "packets transmitted, sum(packetBytes)"
scalar SingleCell.router.ppp[1].ppp 	rcvdPkFromHL:count 	119824
attr interpolationmode  none
attr source  packetReceivedFromUpper
attr title  "packets received from higher layer, count"
scalar SingleCell.router.ppp[1].ppp 	rcvdPkFromHL:sum(packetBytes) 	123179072
attr interpolationmode  none
attr source  packetReceivedFromUpper
attr title  "packets received from higher layer, sum(packetBytes)"
scalar SingleCell.router.ppp[1].ppp 	passedUpPk:count 	121
attr interpolationmode  none
attr source  packetSentToUpper
attr title  "packets passed to higher layer, count"
scalar SingleCell.router.ppp[1].ppp 	passedUpPk:sum(packetBytes) 	4235
attr interpolationmode  none
attr source  packetSentToUpper
attr title  "packets passed to higher layer, sum(packetBytes)"
scalar SingleCell.pgw.networkLayer.arp 	failedARPResolution:count 	0
attr title  "ARP failed resolutions, count"
scalar SingleCell.pgw.networkLayer.arp 	completedARPResolution:count 	0
attr title  "ARP completed resolutions, count"
scalar SingleCell.pgw.networkLayer.arp 	initiatedARPResolution:count 	0
attr title  "ARP initiated resolutions, count"
scalar SingleCell.pgw.networkLayer.arp 	sentReply:count 	0
attr title  "ARP replies sent, count"
scalar SingleCell.pgw.networkLayer.arp 	sentReq:count 	0
attr title  "ARP request sent, count"
scalar SingleCell.pgw.lo0.lo 	droppedPkBitError:count 	0
attr interpolationmode  none
attr source  dropPkBitError
attr title  "packets dropped/bit error, count"
scalar SingleCell.pgw.lo0.lo 	droppedPkBitError:sum(packetBytes) 	0
attr interpolationmode  none
attr source  dropPkBitError
attr title  "packets dropped/bit error, sum(packetBytes)"
scalar SingleCell.pgw.lo0.lo 	rcvdPkFromHL:count 	0
attr interpolationmode  none
attr source  packetReceivedFromUpper
attr title  "packets received from higher layer, count"
scalar SingleCell.pgw.lo0.lo 	rcvdPkFromHL:sum(packetBytes) 	0
attr interpolationmode  none
attr source  packetReceivedFromUpper
attr title  "packets received from higher layer, sum(packetBytes)"
scalar SingleCell.pgw.lo0.lo 	passedUpPk:count 	0
attr interpolationmode  none
attr source  packetSentToUpper
attr title  "packets passed to higher layer, count"
scalar SingleCell.pgw.lo0.lo 	passedUpPk:sum(packetBytes) 	0
attr interpolationmode  none
attr source  packetSentToUpper
attr title  "packets passed to higher layer, sum(packetBytes)"
statistic SingleCell.pgw.ppp[0].queue 	queueingTime:histogram
field count 119824
field mean 6.4350647616536e-09
field stddev 1.2407301106697e-08
field sum 0.00077107520000038
field sqrsum 2.3407605760004e-11
field min 0
field max 6.72e-08
attr interpolationmode  none
attr title  "queueing time, histogram"
bin	-INF	0
bin	-0.5	0
bin	-0.46666666666667	0
bin	-0.43333333333333	0
bin	-0.4	0
bin	-0.36666666666667	0
bin	-0.33333333333333	0
bin	-0.3	0
bin	-0.26666666666667	0
bin	-0.23333333333333	0
bin	-0.2	0
bin	-0.16666666666667	0
bin	-0.13333333333333	0
bin	-0.1	0
bin	-0.066666666666667	0
bin	-0.033333333333333	0
bin	0	119824
bin	0.033333333333333	0
bin	0.066666666666667	0
bin	0.1	0
bin	0.13333333333333	0
bin	0.16666666666667	0
bin	0.2	0
bin	0.23333333333333	0
bin	0.26666666666667	0
bin	0.3	0
bin	0.33333333333333	0
bin	0.36666666666667	0
bin	0.4	0
bin	0.43333333333333	0
bin	0.46666666666667	0
bin	0.5	0
scalar SingleCell.pgw.ppp[0].queue 	dropPk:count 	0
attr interpolationmode  none
attr source  dropPkByQueue
attr title  "dropped packets, count"
scalar SingleCell.pgw.ppp[0].queue 	dropPk:sum(packetBytes) 	0
attr interpolationmode  none
attr source  dropPkByQueue
attr title  "dropped packets, sum(packetBytes)"
scalar SingleCell.pgw.ppp[0].queue 	queueLength:max 	1
attr interpolationmode  sample-hold
attr title  "queue length, max"
scalar SingleCell.pgw.ppp[0].queue 	queueLength:timeavg 	3.8553760000019e-06
attr interpolationmode  sample-hold
attr title  "queue length, timeavg"
scalar SingleCell.pgw.ppp[0].queue 	rcvdPk:count 	119824
attr interpolationmode  none
attr title  "received packets, count"
scalar SingleCell.pgw.ppp[0].queue 	rcvdPk:sum(packetBytes) 	126534144
attr interpolationmode  none
attr title  "received packets, sum(packetBytes)"
scalar SingleCell.pgw.ppp[0].ppp 	txState:timeavg 	0.00050949164800073
attr interpolationmode  sample-hold
attr title  "tx state, timeavg"
scalar SingleCell.pgw.ppp[0].ppp 	droppedPkIfaceDown:count 	0
attr interpolationmode  none
attr source  dropPkIfaceDown
attr title  "packets dropped/interface down, count"
scalar SingleCell.pgw.ppp[0].ppp 	droppedPkIfaceDown:sum(packetBytes) 	0
attr interpolationmode  none
attr source  dropPkIfaceDown
attr title  "packets dropped/interface down, sum(packetBytes)"
scalar SingleCell.pgw.ppp[0].ppp 	droppedPkBitError:count 	0
attr interpolationmode  none
attr source  dropPkBitError
attr title  "packets dropped/bit error, count"
scalar SingleCell.pgw.ppp[0].ppp 	droppedPkBitError:sum(packetBytes) 	0
attr interpolationmode  none
attr source  dropPkBitError
attr title  "packets dropped/bit error, sum(packetBytes)"
scalar SingleCell.pgw.ppp[0].ppp 	rxPkOk:count 	121
attr interpolationmode  none
attr source  rxPkOk
attr title  "packets received OK, count"
scalar SingleCell.pgw.ppp[0].ppp 	rxPkOk:sum(packetBytes) 	8470
attr interpolationmode  none
attr source  rxPkOk
attr title  "packets received OK, sum(packetBytes)"
scalar SingleCell.pgw.ppp[0].ppp 	txPk:count 	119824
attr interpolationmode  none
attr source  packetSentToLower
attr title  "packets transmitted, count"
scalar SingleCell.pgw.ppp[0].ppp 	txPk:sum(packetBytes) 	127372912
attr interpolationmode  none
attr source  packetSentToLower
attr title  "packets transmitted, sum(packetBytes)"
scalar SingleCell.pgw.ppp[0].ppp 	rcvdPkFromHL:count 	119824
attr interpolationmode  none
attr source  packetReceivedFromUpper
attr title  "packets received from higher layer, count"
scalar SingleCell.pgw.ppp[0].ppp 	rcvdPkFromHL:sum(packetBytes) 	126534144
attr interpolationmode  none
attr source  packetReceivedFromUpper
attr title  "packets received from higher layer, sum(packetBytes)"
scalar SingleCell.pgw.ppp[0].ppp 	passedUpPk:count 	121
attr interpolationmode  none
attr source  packetSentToUpper
attr title  "packets passed to higher layer, count"
scalar SingleCell.pgw.ppp[0].ppp 	passedUpPk:sum(packetBytes) 	7623
attr interpolationmode  none
attr source  packetSentToUpper
attr title  "packets passed to higher layer, sum(packetBytes)"
statistic SingleCell.pgw.pppInterface.queue 	queueingTime:histogram
field count 121
field mean 0
field stddev 0
field sum 0
field sqrsum 0
field min 0
field max 0
attr interpolationmode  none
attr title  "queueing time, histogram"
bin	-INF	0
bin	-0.5	0
bin	-0.46666666666667	0
bin	-0.43333333333333	0
bin	-0.4	0
bin	-0.36666666666667	0
bin	-0.33333333333333	0
bin	-0.3	0
bin	-0.26666666666667	0
bin	-0.23333333333333	0
bin	-0.2	0
bin	-0.16666666666667	0
bin	-0.13333333333333	0
bin	-0.1	0
bin	-0.066666666666667	0
bin	-0.033333333333333	0
bin	0	121
bin	0.033333333333333	0
bin	0.066666666666667	0
bin	0.1	0
bin	0.13333333333333	0
bin	0.16666666666667	0
bin	0.2	0
bin	0.23333333333333	0
bin	0.26666666666667	0
bin	0.3	0
bin	0.33333333333333	0
bin	0.36666666666667	0
bin	0.4	0
bin	0.43333333333333	0
bin	0.46666666666667	0
bin	0.5	0
scalar SingleCell.pgw.pppInterface.queue 	dropPk:count 	0
attr interpolationmode  none
attr source  dropPkByQueue
attr title  "dropped packets, count"
scalar SingleCell.pgw.pppInterface.queue 	dropPk:sum(packetBytes) 	0
attr interpolationmode  none
attr source  dropPkByQueue
attr title  "dropped packets, sum(packetBytes)"
scalar SingleCell.pgw.pppInterface.queue 	queueLength:max 	0
attr interpolationmode  sample-hold
attr title  "queue length, max"
scalar SingleCell.pgw.pppInterface.queue 	queueLength:timeavg 	0
attr interpolationmode  sample-hold
attr title  "queue length, timeavg"
scalar SingleCell.pgw.pppInterface.queue 	rcvdPk:count 	121
attr interpolationmode  none
attr title  "received packets, count"
scalar SingleCell.pgw.pppInterface.queue 	rcvdPk:sum(packetBytes) 	4235
attr interpolationmode  none
attr title  "received packets, sum(packetBytes)"
scalar SingleCell.pgw.pppInterface.ppp 	txState:timeavg 	2.0328e-08
attr interpolationmode  sample-hold
attr title  "tx state, timeavg"
scalar SingleCell.pgw.pppInterface.ppp 	droppedPkIfaceDown:count 	0
attr interpolationmode  none
attr source  dropPkIfaceDown
attr title  "packets dropped/interface down, count"
scalar SingleCell.pgw.pppInterface.ppp 	droppedPkIfaceDown:sum(packetBytes) 	0
attr interpolationmode  none
attr source  dropPkIfaceDown
attr title  "packets dropped/interface down, sum(packetBytes)"
scalar SingleCell.pgw.pppInterface.ppp 	droppedPkBitError:count 	0
attr interpolationmode  none
attr source  dropPkBitError
attr title  "packets dropped/bit error, count"
scalar SingleCell.pgw.pppInterface.ppp 	droppedPkBitError:sum(packetBytes) 	0
attr interpolationmode  none
attr source  dropPkBitError
attr title  "packets dropped/bit error, sum(packetBytes)"
scalar SingleCell.pgw.pppInterface.ppp 	rxPkOk:count 	119824
attr interpolationmode  none
attr source  rxPkOk
attr title  "packets received OK, count"
scalar SingleCell.pgw.pppInterface.ppp 	rxPkOk:sum(packetBytes) 	124017840
attr interpolationmode  none
attr source  rxPkOk
attr title  "packets received OK, sum(packetBytes)"
scalar SingleCell.pgw.pppInterface.ppp 	txPk:count 	121
attr interpolationmode  none
attr source  packetSentToLower
attr title  "packets transmitted, count"
scalar SingleCell.pgw.pppInterface.ppp 	txPk:sum(packetBytes) 	5082
attr interpolationmode  none
attr source  packetSentToLower
attr title  "packets transmitted, sum(packetBytes)"
scalar SingleCell.pgw.pppInterface.ppp 	rcvdPkFromHL:count 	121
attr interpolationmode  none
attr source  packetReceivedFromUpper
attr title  "packets received from higher layer, count"
scalar SingleCell.pgw.pppInterface.ppp 	rcvdPkFromHL:sum(packetBytes) 	4235
attr interpolationmode  none
attr source  packetReceivedFromUpper
attr title  "packets received from higher layer, sum(packetBytes)"
scalar SingleCell.pgw.pppInterface.ppp 	passedUpPk:count 	119824
attr interpolationmode  none
attr source  packetSentToUpper
attr title  "packets passed to higher layer, count"
scalar SingleCell.pgw.pppInterface.ppp 	passedUpPk:sum(packetBytes) 	123179072
attr interpolationmode  none
attr source  packetSentToUpper
attr title  "packets passed to higher layer, sum(packetBytes)"
scalar SingleCell.pgw.udp 	droppedPkBadChecksum:count 	0
attr interpolationmode  none
attr title  "packets dropped (checksum error), count"
scalar SingleCell.pgw.udp 	droppedPkWrongPort:count 	0
attr interpolationmode  none
attr title  "packets dropped (wrong port), count"
scalar SingleCell.pgw.udp 	passedUpPk:count 	121
attr interpolationmode  none
attr title  "packets passed up, count"
scalar SingleCell.pgw.udp 	rcvdPk:count 	121
attr interpolationmode  none
attr source  rcvdPk
attr title  "packets received, count"
scalar SingleCell.pgw.udp 	rcvdPk:sum(packetBytes) 	5203
attr interpolationmode  none
attr source  rcvdPk
attr title  "packets received, sum(packetBytes)"
scalar SingleCell.pgw.udp 	sentPk:count 	119824
attr interpolationmode  none
attr source  sentPk
attr title  "packets sent, count"
scalar SingleCell.pgw.udp 	sentPk:sum(packetBytes) 	124137664
attr interpolationmode  none
attr source  sentPk
attr title  "packets sent, sum(packetBytes)"
scalar SingleCell.eNodeB.nic.pdcpRrc 	sentPacketToLowerLayer:count 	119884
attr interpolationmode  none
attr source  sentPacketToLowerLayer
scalar SingleCell.eNodeB.nic.pdcpRrc 	sentPacketToLowerLayer:sum(packetBytes) 	123301056
attr interpolationmode  none
attr source  sentPacketToLowerLayer
scalar SingleCell.eNodeB.nic.pdcpRrc 	sentPacketToUpperLayer:count 	181
attr interpolationmode  none
attr source  sentPacketToUpperLayer
scalar SingleCell.eNodeB.nic.pdcpRrc 	sentPacketToUpperLayer:sum(packetBytes) 	6335
attr interpolationmode  none
attr source  sentPacketToUpperLayer
scalar SingleCell.eNodeB.nic.pdcpRrc 	receivedPacketFromLowerLayer:count 	181
attr interpolationmode  none
attr source  receivedPacketFromLowerLayer
scalar SingleCell.eNodeB.nic.pdcpRrc 	receivedPacketFromLowerLayer:sum(packetBytes) 	6516
attr interpolationmode  none
attr source  receivedPacketFromLowerLayer
scalar SingleCell.eNodeB.nic.pdcpRrc 	receivedPacketFromUpperLayer:count 	119884
attr interpolationmode  none
attr source  receivedPacketFromUpperLayer
scalar SingleCell.eNodeB.nic.pdcpRrc 	receivedPacketFromUpperLayer:sum(packetBytes) 	123181172
attr interpolationmode  none
attr source  receivedPacketFromUpperLayer
scalar SingleCell.eNodeB.nic.rlc.um 	rlcCellPacketLossUl:lteAvg 	0
attr source  rlcCellPacketLossUl
attr title  "rlc Cell Packet Loss, lteAvg"
attr unit  ""
scalar SingleCell.eNodeB.nic.rlc.um 	rlcCellPacketLossDl:lteAvg 	0.79860735464579
attr source  rlcCellPacketLossDl
attr title  "rlc Cell Packet Loss, lteAvg"
attr unit  ""
scalar SingleCell.eNodeB.nic.rlc.um 	rlcCellThroughputDl:lteRate 	622768.29791855
attr source  rlcCellThroughputDl
attr title  "Cell Throughput at the rlc layer DL, lteRate"
attr unit  Bps
scalar SingleCell.eNodeB.nic.rlc.um 	rlcCellThroughputUl:lteRate 	32.910420623055
attr source  rlcCellThroughputUl
attr title  "Cell Throughput at the rlc layer UL, lteRate"
attr unit  Bps
scalar SingleCell.eNodeB.nic.mac 	cqiDlMuMimo0:lteAvg 	13.830653386932
attr source  cqiDlMuMimo0
attr title  "Average cqi MuMimo band 0, lteAvg"
attr unit  cqi
scalar SingleCell.eNodeB.nic.mac 	cqiDlMuMimo0:lteAvg 	13.969760604788
attr source  cqiDlMuMimo0
attr title  "Average cqi MuMimo band 0, lteAvg"
attr unit  cqi
scalar SingleCell.eNodeB.nic.mac 	cqiDlMuMimo0:lteAvg 	14.87496250075
attr source  cqiDlMuMimo0
attr title  "Average cqi MuMimo band 0, lteAvg"
attr unit  cqi
scalar SingleCell.eNodeB.nic.mac 	cqiDlMuMimo0:lteAvg 	13.539209215816
attr source  cqiDlMuMimo0
attr title  "Average cqi MuMimo band 0, lteAvg"
attr unit  cqi
scalar SingleCell.eNodeB.nic.mac 	cqiDlMuMimo0:lteAvg 	14.057808843823
attr source  cqiDlMuMimo0
attr title  "Average cqi MuMimo band 0, lteAvg"
attr unit  cqi
scalar SingleCell.eNodeB.nic.mac 	cqiDlTxDiv0:lteAvg 	14.989140217196
attr source  cqiDlTxDiv0
attr title  "Average cqi TxDiv band 0, lteAvg"
attr unit  cqi
scalar SingleCell.eNodeB.nic.mac 	cqiDlTxDiv0:lteAvg 	14.976420471591
attr source  cqiDlTxDiv0
attr title  "Average cqi TxDiv band 0, lteAvg"
attr unit  cqi
scalar SingleCell.eNodeB.nic.mac 	cqiDlTxDiv0:lteAvg 	14.996100077998
attr source  cqiDlTxDiv0
attr title  "Average cqi TxDiv band 0, lteAvg"
attr unit  cqi
scalar SingleCell.eNodeB.nic.mac 	cqiDlTxDiv0:lteAvg 	14.973270534589
attr source  cqiDlTxDiv0
attr title  "Average cqi TxDiv band 0, lteAvg"
attr unit  cqi
scalar SingleCell.eNodeB.nic.mac 	cqiDlTxDiv0:lteAvg 	14.994870102598
attr source  cqiDlTxDiv0
attr title  "Average cqi TxDiv band 0, lteAvg"
attr unit  cqi
scalar SingleCell.eNodeB.nic.mac 	cqiDlSpmux0:lteAvg 	12.627827443451
attr source  cqiDlSpmux0
attr title  "Average cqi Spmux band 0, lteAvg"
attr unit  cqi
scalar SingleCell.eNodeB.nic.mac 	cqiDlSpmux0:lteAvg 	12.912371752565
attr source  cqiDlSpmux0
attr title  "Average cqi Spmux band 0, lteAvg"
attr unit  cqi
scalar SingleCell.eNodeB.nic.mac 	cqiDlSpmux0:lteAvg 	14.517609647807
attr source  cqiDlSpmux0
attr title  "Average cqi Spmux band 0, lteAvg"
attr unit  cqi
scalar SingleCell.eNodeB.nic.mac 	cqiDlSpmux0:lteAvg 	12.310703785924
attr source  cqiDlSpmux0
attr title  "Average cqi Spmux band 0, lteAvg"
attr unit  cqi
scalar SingleCell.eNodeB.nic.mac 	cqiDlSpmux0:lteAvg 	12.532189356213
attr source  cqiDlSpmux0
attr title  "Average cqi Spmux band 0, lteAvg"
attr unit  cqi
scalar SingleCell.eNodeB.nic.mac 	cqiDlSiso0:lteAvg 	13.830653386932
attr source  cqiDlSiso0
attr title  "Average cqi siso band 0, lteAvg"
attr unit  cqi
scalar SingleCell.eNodeB.nic.mac 	cqiDlSiso0:lteAvg 	13.969760604788
attr source  cqiDlSiso0
attr title  "Average cqi siso band 0, lteAvg"
attr unit  cqi
scalar SingleCell.eNodeB.nic.mac 	cqiDlSiso0:lteAvg 	14.87496250075
attr source  cqiDlSiso0
attr title  "Average cqi siso band 0, lteAvg"
attr unit  cqi
scalar SingleCell.eNodeB.nic.mac 	cqiDlSiso0:lteAvg 	13.539209215816
attr source  cqiDlSiso0
attr title  "Average cqi siso band 0, lteAvg"
attr unit  cqi
scalar SingleCell.eNodeB.nic.mac 	cqiDlSiso0:lteAvg 	14.057808843823
attr source  cqiDlSiso0
attr title  "Average cqi siso band 0, lteAvg"
attr unit  cqi
scalar SingleCell.eNodeB.nic.mac 	depletedPowerUl:lteAvg 	0
attr source  depletedPowerUl
attr title  "LTE ENodeB depleted power Ul, lteAvg"
attr unit  watts
scalar SingleCell.eNodeB.nic.mac 	depletedPowerDl:lteAvg 	286.93929079977
attr source  depletedPowerDl
attr title  "LTE ENodeB depleted power Dl, lteAvg"
attr unit  watts
scalar SingleCell.eNodeB.nic.mac 	avgServedBlocksUl:lteAvg 	0.9124
attr source  avgServedBlocksUl
attr title  "LTE Avg Served Blocks Ul, lteAvg"
attr unit  blocks
scalar SingleCell.eNodeB.nic.mac 	avgServedBlocksDl:lteAvg 	7.164705
attr source  avgServedBlocksDl
attr title  "LTE Avg Served Blocks Dl, lteAvg"
attr unit  blocks
scalar SingleCell.eNodeB.nic.mac 	cellBlocksUtilizationUl:lteAvg 	0.0091239999999924
attr source  cellBlocksUtilizationUl
attr title  "LTE Cell Blocks Utilization Ul, lteAvg"
attr unit  blocks
scalar SingleCell.eNodeB.nic.mac 	cellBlocksUtilizationDl:lteAvg 	0.071647050000082
attr source  cellBlocksUtilizationDl
attr title  "LTE Cell Blocks Utilization Dl, lteAvg"
attr unit  blocks
scalar SingleCell.eNodeB.nic.mac 	measuredItbs:mean 	20.931831534533
attr source  measuredItbs
attr title  "TBS index, mean"
attr unit  ""
scalar SingleCell.eNodeB.nic.mac 	harqErrorRate_4th_D2D:mean 	-nan
attr source  harqErrorRate_4th_D2D
attr title  "Harq Error Rate D2D, mean"
attr unit  ""
scalar SingleCell.eNodeB.nic.mac 	harqErrorRate_4th_Dl:mean 	-nan
attr source  harqErrorRate_4th_Dl
attr title  "Harq Error Rate Dl, mean"
attr unit  ""
scalar SingleCell.eNodeB.nic.mac 	harqErrorRate_4th_Ul:mean 	-nan
attr source  harqErrorRate_4th_Ul
attr title  "Harq Error Rate Dl, mean"
attr unit  ""
scalar SingleCell.eNodeB.nic.mac 	harqErrorRate_3rd_D2D:mean 	-nan
attr source  harqErrorRate_3rd_D2D
attr title  "Harq Error Rate D2D, mean"
attr unit  ""
scalar SingleCell.eNodeB.nic.mac 	harqErrorRate_3rd_Dl:mean 	-nan
attr source  harqErrorRate_3rd_Dl
attr title  "Harq Error Rate Dl, mean"
attr unit  ""
scalar SingleCell.eNodeB.nic.mac 	harqErrorRate_3rd_Ul:mean 	-nan
attr source  harqErrorRate_3rd_Ul
attr title  "Harq Error Rate Dl, mean"
attr unit  ""
scalar SingleCell.eNodeB.nic.mac 	harqErrorRate_2nd_D2D:mean 	-nan
attr source  harqErrorRate_2nd_D2D
attr title  "Harq Error Rate D2D, mean"
attr unit  ""
scalar SingleCell.eNodeB.nic.mac 	harqErrorRate_2nd_Dl:mean 	-nan
attr source  harqErrorRate_2nd_Dl
attr title  "Harq Error Rate Dl, mean"
attr unit  ""
scalar SingleCell.eNodeB.nic.mac 	harqErrorRate_2nd_Ul:mean 	-nan
attr source  harqErrorRate_2nd_Ul
attr title  "Harq Error Rate Dl, mean"
attr unit  ""
scalar SingleCell.eNodeB.nic.mac 	harqErrorRate_1st_D2D:mean 	-nan
attr source  harqErrorRate_1st_D2D
attr title  "Harq Error Rate D2D, mean"
attr unit  ""
scalar SingleCell.eNodeB.nic.mac 	harqErrorRate_1st_Dl:mean 	-nan
attr source  harqErrorRate_1st_Dl
attr title  "Harq Error Rate Dl, mean"
attr unit  ""
scalar SingleCell.eNodeB.nic.mac 	harqErrorRate_1st_Ul:mean 	-nan
attr source  harqErrorRate_1st_Ul
attr title  "Harq Error Rate Dl, mean"
attr unit  ""
scalar SingleCell.eNodeB.nic.mac 	harqErrorRateD2D:mean 	-nan
attr source  harqErrorRateD2D
attr title  "Harq Error Rate D2D, mean"
attr unit  ""
scalar SingleCell.eNodeB.nic.mac 	harqErrorRateDl:mean 	-nan
attr source  harqErrorRateDl
attr title  "Harq Error Rate Dl, mean"
attr unit  ""
scalar SingleCell.eNodeB.nic.mac 	harqErrorRateUl:mean 	-nan
attr source  harqErrorRateUl
attr title  "Harq Error Rate Dl, mean"
attr unit  ""
scalar SingleCell.eNodeB.nic.mac 	macPacketLossD2D:mean 	-nan
attr source  macPacketLossD2D
attr title  "Mac Packet Loss D2D, mean"
attr unit  ""
scalar SingleCell.eNodeB.nic.mac 	macPacketLossDl:mean 	-nan
attr source  macPacketLossDl
attr title  "Mac Packet Loss, mean"
attr unit  ""
scalar SingleCell.eNodeB.nic.mac 	macPacketLossUl:mean 	-nan
attr source  macPacketLossUl
attr title  "Mac Packet Loss, mean"
attr unit  ""
scalar SingleCell.eNodeB.nic.mac 	macCellPacketLossD2D:mean 	-nan
attr source  macCellPacketLossD2D
attr title  "Mac Cell Packet Loss D2D, mean"
attr unit  ""
scalar SingleCell.eNodeB.nic.mac 	macCellPacketLossUl:mean 	0
attr source  macCellPacketLossUl
attr title  "Mac Cell Packet Loss, mean"
attr unit  ""
scalar SingleCell.eNodeB.nic.mac 	macCellPacketLossDl:mean 	0
attr source  macCellPacketLossDl
attr title  "Mac Cell Packet Loss, mean"
attr unit  ""
scalar SingleCell.eNodeB.nic.mac 	macCellThroughputDl:lteRate 	624964.26027972
attr source  macCellThroughputDl
attr title  "Cell Throughput at the MAC layer DL, lteRate"
attr unit  Bps
scalar SingleCell.eNodeB.nic.mac 	macCellThroughputUl:lteRate 	50.699018142147
attr source  macCellThroughputUl
attr title  "Cell Throughput at the MAC layer UL, lteRate"
attr unit  Bps
scalar SingleCell.ue[0].nic.mac 	macThroughputUl:lteRate 	10.838821770577
attr source  macThroughputUl
attr title  "Throughput at the MAC layer UL, lteRate"
attr unit  Bps
scalar SingleCell.ue[1].nic.mac 	macThroughputUl:lteRate 	18.522064768714
attr source  macThroughputUl
attr title  "Throughput at the MAC layer UL, lteRate"
attr unit  Bps
scalar SingleCell.ue[2].nic.mac 	macThroughputUl:lteRate 	10.523724536895
attr source  macThroughputUl
attr title  "Throughput at the MAC layer UL, lteRate"
attr unit  Bps
scalar SingleCell.ue[3].nic.mac 	macThroughputUl:lteRate 	14.600973398227
attr source  macThroughputUl
attr title  "Throughput at the MAC layer UL, lteRate"
attr unit  Bps
scalar SingleCell.ue[4].nic.mac 	macThroughputUl:lteRate 	16.126612661266
attr source  macThroughputUl
attr title  "Throughput at the MAC layer UL, lteRate"
attr unit  Bps
scalar SingleCell.ue[0].nic.mac 	macDelayUl:lteAvg 	0.0040919540229885
attr source  macDelayUl
attr title  "Delay at the MAC layer UL, lteAvg"
attr unit  s
scalar SingleCell.ue[1].nic.mac 	macDelayUl:lteAvg 	0.0041265206812652
attr source  macDelayUl
attr title  "Delay at the MAC layer UL, lteAvg"
attr unit  s
scalar SingleCell.ue[2].nic.mac 	macDelayUl:lteAvg 	0.004
attr source  macDelayUl
attr title  "Delay at the MAC layer UL, lteAvg"
attr unit  s
scalar SingleCell.ue[3].nic.mac 	macDelayUl:lteAvg 	0.0040533333333333
attr source  macDelayUl
attr title  "Delay at the MAC layer UL, lteAvg"
attr unit  s
scalar SingleCell.ue[4].nic.mac 	macDelayUl:lteAvg 	0.004
attr source  macDelayUl
attr title  "Delay at the MAC layer UL, lteAvg"
attr unit  s
scalar SingleCell.eNodeB.nic.mac 	sentPacketToLowerLayer:count 	294233
attr interpolationmode  none
attr source  sentPacketToLowerLayer
scalar SingleCell.eNodeB.nic.mac 	sentPacketToLowerLayer:sum(packetBytes) 	123969018
attr interpolationmode  none
attr source  sentPacketToLowerLayer
scalar SingleCell.eNodeB.nic.mac 	sentPacketToUpperLayer:count 	108970
attr interpolationmode  none
attr source  sentPacketToUpperLayer
scalar SingleCell.eNodeB.nic.mac 	sentPacketToUpperLayer:sum(packetBytes) 	7068
attr interpolationmode  none
attr source  sentPacketToUpperLayer
scalar SingleCell.eNodeB.nic.mac 	receivedPacketFromLowerLayer:count 	278463
attr interpolationmode  none
attr source  receivedPacketFromLowerLayer
scalar SingleCell.eNodeB.nic.mac 	receivedPacketFromLowerLayer:sum(packetBytes) 	10073
attr interpolationmode  none
attr source  receivedPacketFromLowerLayer
scalar SingleCell.eNodeB.nic.mac 	receivedPacketFromUpperLayer:count 	228578
attr interpolationmode  none
attr source  receivedPacketFromUpperLayer
scalar SingleCell.eNodeB.nic.mac 	receivedPacketFromUpperLayer:sum(packetBytes) 	246819500
attr interpolationmode  none
attr source  receivedPacketFromUpperLayer
scalar SingleCell.ue[0].nic.mac 	averageCqiUl:lteAvg 	8.8181818181818
attr source  averageCqiUl
attr title  "Average Cqi reported in UL, lteAvg"
attr unit  cqi
scalar SingleCell.ue[1].nic.mac 	averageCqiUl:lteAvg 	2.7245508982036
attr source  averageCqiUl
attr title  "Average Cqi reported in UL, lteAvg"
attr unit  cqi
scalar SingleCell.ue[2].nic.mac 	averageCqiUl:lteAvg 	14.166666666667
attr source  averageCqiUl
attr title  "Average Cqi reported in UL, lteAvg"
attr unit  cqi
scalar SingleCell.ue[3].nic.mac 	averageCqiUl:lteAvg 	3.2384105960265
attr source  averageCqiUl
attr title  "Average Cqi reported in UL, lteAvg"
attr unit  cqi
scalar SingleCell.ue[4].nic.mac 	averageCqiUl:lteAvg 	3.3458333333333
attr source  averageCqiUl
attr title  "Average Cqi reported in UL, lteAvg"
attr unit  cqi
statistic SingleCell.eNodeB.pppIf.queue 	queueingTime:histogram
field count 121
field mean 0
field stddev 0
field sum 0
field sqrsum 0
field min 0
field max 0
attr interpolationmode  none
attr title  "queueing time, histogram"
bin	-INF	0
bin	-0.5	0
bin	-0.46666666666667	0
bin	-0.43333333333333	0
bin	-0.4	0
bin	-0.36666666666667	0
bin	-0.33333333333333	0
bin	-0.3	0
bin	-0.26666666666667	0
bin	-0.23333333333333	0
bin	-0.2	0
bin	-0.16666666666667	0
bin	-0.13333333333333	0
bin	-0.1	0
bin	-0.066666666666667	0
bin	-0.033333333333333	0
bin	0	121
bin	0.033333333333333	0
bin	0.066666666666667	0
bin	0.1	0
bin	0.13333333333333	0
bin	0.16666666666667	0
bin	0.2	0
bin	0.23333333333333	0
bin	0.26666666666667	0
bin	0.3	0
bin	0.33333333333333	0
bin	0.36666666666667	0
bin	0.4	0
bin	0.43333333333333	0
bin	0.46666666666667	0
bin	0.5	0
scalar SingleCell.eNodeB.pppIf.queue 	dropPk:count 	0
attr interpolationmode  none
attr source  dropPkByQueue
attr title  "dropped packets, count"
scalar SingleCell.eNodeB.pppIf.queue 	dropPk:sum(packetBytes) 	0
attr interpolationmode  none
attr source  dropPkByQueue
attr title  "dropped packets, sum(packetBytes)"
scalar SingleCell.eNodeB.pppIf.queue 	queueLength:max 	0
attr interpolationmode  sample-hold
attr title  "queue length, max"
scalar SingleCell.eNodeB.pppIf.queue 	queueLength:timeavg 	0
attr interpolationmode  sample-hold
attr title  "queue length, timeavg"
scalar SingleCell.eNodeB.pppIf.queue 	rcvdPk:count 	121
attr interpolationmode  none
attr title  "received packets, count"
scalar SingleCell.eNodeB.pppIf.queue 	rcvdPk:sum(packetBytes) 	7623
attr interpolationmode  none
attr title  "received packets, sum(packetBytes)"
scalar SingleCell.eNodeB.pppIf.ppp 	txState:timeavg 	3.388e-08
attr interpolationmode  sample-hold
attr title  "tx state, timeavg"
scalar SingleCell.eNodeB.pppIf.ppp 	droppedPkIfaceDown:count 	0
attr interpolationmode  none
attr source  dropPkIfaceDown
attr title  "packets dropped/interface down, count"
scalar SingleCell.eNodeB.pppIf.ppp 	droppedPkIfaceDown:sum(packetBytes) 	0
attr interpolationmode  none
attr source  dropPkIfaceDown
attr title  "packets dropped/interface down, sum(packetBytes)"
scalar SingleCell.eNodeB.pppIf.ppp 	droppedPkBitError:count 	0
attr interpolationmode  none
attr source  dropPkBitError
attr title  "packets dropped/bit error, count"
scalar SingleCell.eNodeB.pppIf.ppp 	droppedPkBitError:sum(packetBytes) 	0
attr interpolationmode  none
attr source  dropPkBitError
attr title  "packets dropped/bit error, sum(packetBytes)"
scalar SingleCell.eNodeB.pppIf.ppp 	rxPkOk:count 	119824
attr interpolationmode  none
attr source  rxPkOk
attr title  "packets received OK, count"
scalar SingleCell.eNodeB.pppIf.ppp 	rxPkOk:sum(packetBytes) 	127372912
attr interpolationmode  none
attr source  rxPkOk
attr title  "packets received OK, sum(packetBytes)"
scalar SingleCell.eNodeB.pppIf.ppp 	txPk:count 	121
attr interpolationmode  none
attr source  packetSentToLower
attr title  "packets transmitted, count"
scalar SingleCell.eNodeB.pppIf.ppp 	txPk:sum(packetBytes) 	8470
attr interpolationmode  none
attr source  packetSentToLower
attr title  "packets transmitted, sum(packetBytes)"
scalar SingleCell.eNodeB.pppIf.ppp 	rcvdPkFromHL:count 	121
attr interpolationmode  none
attr source  packetReceivedFromUpper
attr title  "packets received from higher layer, count"
scalar SingleCell.eNodeB.pppIf.ppp 	rcvdPkFromHL:sum(packetBytes) 	7623
attr interpolationmode  none
attr source  packetReceivedFromUpper
attr title  "packets received from higher layer, sum(packetBytes)"
scalar SingleCell.eNodeB.pppIf.ppp 	passedUpPk:count 	119824
attr interpolationmode  none
attr source  packetSentToUpper
attr title  "packets passed to higher layer, count"
scalar SingleCell.eNodeB.pppIf.ppp 	passedUpPk:sum(packetBytes) 	126534144
attr interpolationmode  none
attr source  packetSentToUpper
attr title  "packets passed to higher layer, sum(packetBytes)"
scalar SingleCell.eNodeB.networkLayer.arp 	failedARPResolution:count 	0
attr title  "ARP failed resolutions, count"
scalar SingleCell.eNodeB.networkLayer.arp 	completedARPResolution:count 	0
attr title  "ARP completed resolutions, count"
scalar SingleCell.eNodeB.networkLayer.arp 	initiatedARPResolution:count 	0
attr title  "ARP initiated resolutions, count"
scalar SingleCell.eNodeB.networkLayer.arp 	sentReply:count 	0
attr title  "ARP replies sent, count"
scalar SingleCell.eNodeB.networkLayer.arp 	sentReq:count 	0
attr title  "ARP request sent, count"
scalar SingleCell.eNodeB.udp 	droppedPkBadChecksum:count 	0
attr interpolationmode  none
attr title  "packets dropped (checksum error), count"
scalar SingleCell.eNodeB.udp 	droppedPkWrongPort:count 	0
attr interpolationmode  none
attr title  "packets dropped (wrong port), count"
scalar SingleCell.eNodeB.udp 	passedUpPk:count 	119824
attr interpolationmode  none
attr title  "packets passed up, count"
scalar SingleCell.eNodeB.udp 	rcvdPk:count 	119824
attr interpolationmode  none
attr source  rcvdPk
attr title  "packets received, count"
scalar SingleCell.eNodeB.udp 	rcvdPk:sum(packetBytes) 	124137664
attr interpolationmode  none
attr source  rcvdPk
attr title  "packets received, sum(packetBytes)"
scalar SingleCell.eNodeB.udp 	sentPk:count 	121
attr interpolationmode  none
attr source  sentPk
attr title  "packets sent, count"
scalar SingleCell.eNodeB.udp 	sentPk:sum(packetBytes) 	5203
attr interpolationmode  none
attr source  sentPk
attr title  "packets sent, sum(packetBytes)"
statistic SingleCell.ue[0].udpApp[0] 	endToEndDelay:stats
field count 24
field mean 8.0126666666667
field stddev 0.012672004976524
field sum 192.304
field sqrsum 1540.871544
field min 8.002
field max 8.049
attr interpolationmode  none
attr source  segmentCompletionTime
attr title  "end-to-end delay, stats"
statistic SingleCell.ue[0].udpApp[1] 	endToEndDelay:stats
field count 24
field mean 8.0120833333333
field stddev 0.011537902252726
field sum 192.29
field sqrsum 1540.646566
field min 8.002
field max 8.056
attr interpolationmode  none
attr source  segmentCompletionTime
attr title  "end-to-end delay, stats"
scalar SingleCell.ue[0].udp 	droppedPkBadChecksum:count 	0
attr interpolationmode  none
attr title  "packets dropped (checksum error), count"
scalar SingleCell.ue[0].udp 	droppedPkWrongPort:count 	0
attr interpolationmode  none
attr title  "packets dropped (wrong port), count"
scalar SingleCell.ue[0].udp 	passedUpPk:count 	21029
attr interpolationmode  none
attr title  "packets passed up, count"
scalar SingleCell.ue[0].udp 	rcvdPk:count 	21029
attr interpolationmode  none
attr source  rcvdPk
attr title  "packets received, count"
scalar SingleCell.ue[0].udp 	rcvdPk:sum(packetBytes) 	21168435
attr interpolationmode  none
attr source  rcvdPk
attr title  "packets received, sum(packetBytes)"
scalar SingleCell.ue[0].udp 	sentPk:count 	50
attr interpolationmode  none
attr source  sentPk
attr title  "packets sent, count"
scalar SingleCell.ue[0].udp 	sentPk:sum(packetBytes) 	750
attr interpolationmode  none
attr source  sentPk
attr title  "packets sent, sum(packetBytes)"
scalar SingleCell.ue[0].nic.pdcpRrc 	sentPacketToLowerLayer:count 	50
attr interpolationmode  none
attr source  sentPacketToLowerLayer
scalar SingleCell.ue[0].nic.pdcpRrc 	sentPacketToLowerLayer:sum(packetBytes) 	1800
attr interpolationmode  none
attr source  sentPacketToLowerLayer
scalar SingleCell.ue[0].nic.pdcpRrc 	sentPacketToUpperLayer:count 	21029
attr interpolationmode  none
attr source  sentPacketToUpperLayer
scalar SingleCell.ue[0].nic.pdcpRrc 	sentPacketToUpperLayer:sum(packetBytes) 	21589015
attr interpolationmode  none
attr source  sentPacketToUpperLayer
scalar SingleCell.ue[0].nic.pdcpRrc 	receivedPacketFromLowerLayer:count 	21029
attr interpolationmode  none
attr source  receivedPacketFromLowerLayer
scalar SingleCell.ue[0].nic.pdcpRrc 	receivedPacketFromLowerLayer:sum(packetBytes) 	21610044
attr interpolationmode  none
attr source  receivedPacketFromLowerLayer
scalar SingleCell.ue[0].nic.pdcpRrc 	receivedPacketFromUpperLayer:count 	50
attr interpolationmode  none
attr source  receivedPacketFromUpperLayer
scalar SingleCell.ue[0].nic.pdcpRrc 	receivedPacketFromUpperLayer:sum(packetBytes) 	1750
attr interpolationmode  none
attr source  receivedPacketFromUpperLayer
scalar SingleCell.ue[0].nic.rlc.um 	rlcPduPacketLossDl:lteAvg 	0
attr source  rlcPduPacketLossDl
attr title  "rlc Packet Loss, lteAvg"
attr unit  ""
scalar SingleCell.ue[0].nic.rlc.um 	rlcPduPacketLossUl:lteAvg 	0
attr source  rlcPduPacketLossUl
attr title  "rlc Packet Loss, lteAvg"
attr unit  ""
scalar SingleCell.ue[0].nic.rlc.um 	rlcPacketLossTotal:lteAvg 	0.8207308879685
attr source  rlcPacketLossTotal
attr title  "rlc Packet Loss, lteAvg"
attr unit  ""
scalar SingleCell.ue[0].nic.rlc.um 	rlcPacketLossDl:lteAvg 	0.82108003709596
attr source  rlcPacketLossDl
attr title  "rlc Packet Loss, lteAvg"
attr unit  ""
scalar SingleCell.ue[0].nic.rlc.um 	rlcPacketLossUl:lteAvg 	0
attr source  rlcPacketLossUl
attr title  "rlc Packet Loss, lteAvg"
attr unit  ""
scalar SingleCell.ue[0].nic.rlc.um 	rlcPduThroughputUl:lteRate 	9.9599983837731
attr source  rlcPduThroughputUl
attr title  "Throughput at the rlc layer UL, lteRate"
attr unit  Bps
scalar SingleCell.ue[0].nic.rlc.um 	rlcPduDelayUl:lteAvg 	0.004093023255814
attr source  rlcPduDelayUl
attr title  "Delay at the rlc layer UL, lteAvg"
attr unit  s
scalar SingleCell.ue[0].nic.rlc.um 	rlcPduThroughputDl:lteRate 	109343.57306288
attr source  rlcPduThroughputDl
attr title  "Throughput at the rlc layer DL, lteRate"
attr unit  Bps
scalar SingleCell.ue[0].nic.rlc.um 	rlcPduDelayDl:lteAvg 	0.0040068461179401
attr source  rlcPduDelayDl
attr title  "Delay at the rlc layer UL, lteAvg"
attr unit  s
scalar SingleCell.ue[0].nic.rlc.um 	rlcThroughputUl:lteRate 	9.0912764152087
attr source  rlcThroughputUl
attr title  "Throughput at the rlc layer UL, lteRate"
attr unit  Bps
scalar SingleCell.ue[0].nic.rlc.um 	rlcDelayUl:lteAvg 	0.01076
attr source  rlcDelayUl
attr title  "Delay at the rlc layer UL, lteAvg"
attr unit  s
scalar SingleCell.ue[0].nic.rlc.um 	rlcThroughputDl:lteRate 	109148.80269917
attr source  rlcThroughputDl
attr title  "Throughput at the rlc layer DL, lteRate"
attr unit  Bps
scalar SingleCell.ue[0].nic.rlc.um 	rlcDelayDl:lteAvg 	0.0050085132838638
attr source  rlcDelayDl
attr title  "Delay at the rlc layer UL, lteAvg"
attr unit  s
scalar SingleCell.ue[0].nic.mac 	measuredItbs:mean 	-nan
attr source  measuredItbs
attr title  "TBS index, mean"
attr unit  ""
scalar SingleCell.ue[0].nic.mac 	harqErrorRate_4th_D2D:mean 	-nan
attr source  harqErrorRate_4th_D2D
attr title  "Harq Error Rate D2D, mean"
attr unit  ""
scalar SingleCell.ue[0].nic.mac 	harqErrorRate_4th_Dl:mean 	-nan
attr source  harqErrorRate_4th_Dl
attr title  "Harq Error Rate Dl, mean"
attr unit  ""
scalar SingleCell.ue[0].nic.mac 	harqErrorRate_4th_Ul:mean 	-nan
attr source  harqErrorRate_4th_Ul
attr title  "Harq Error Rate Dl, mean"
attr unit  ""
scalar SingleCell.ue[0].nic.mac 	harqErrorRate_3rd_D2D:mean 	-nan
attr source  harqErrorRate_3rd_D2D
attr title  "Harq Error Rate D2D, mean"
attr unit  ""
scalar SingleCell.ue[0].nic.mac 	harqErrorRate_3rd_Dl:mean 	-nan
attr source  harqErrorRate_3rd_Dl
attr title  "Harq Error Rate Dl, mean"
attr unit  ""
scalar SingleCell.ue[0].nic.mac 	harqErrorRate_3rd_Ul:mean 	-nan
attr source  harqErrorRate_3rd_Ul
attr title  "Harq Error Rate Dl, mean"
attr unit  ""
scalar SingleCell.ue[0].nic.mac 	harqErrorRate_2nd_D2D:mean 	-nan
attr source  harqErrorRate_2nd_D2D
attr title  "Harq Error Rate D2D, mean"
attr unit  ""
scalar SingleCell.ue[0].nic.mac 	harqErrorRate_2nd_Dl:mean 	0
attr source  harqErrorRate_2nd_Dl
attr title  "Harq Error Rate Dl, mean"
attr unit  ""
scalar SingleCell.ue[0].nic.mac 	harqErrorRate_2nd_Ul:mean 	0
attr source  harqErrorRate_2nd_Ul
attr title  "Harq Error Rate Dl, mean"
attr unit  ""
scalar SingleCell.ue[0].nic.mac 	harqErrorRate_1st_D2D:mean 	-nan
attr source  harqErrorRate_1st_D2D
attr title  "Harq Error Rate D2D, mean"
attr unit  ""
scalar SingleCell.ue[0].nic.mac 	harqErrorRate_1st_Dl:mean 	0.0011410196566568
attr source  harqErrorRate_1st_Dl
attr title  "Harq Error Rate Dl, mean"
attr unit  ""
scalar SingleCell.ue[0].nic.mac 	harqErrorRate_1st_Ul:mean 	0.011494252873563
attr source  harqErrorRate_1st_Ul
attr title  "Harq Error Rate Dl, mean"
attr unit  ""
scalar SingleCell.ue[0].nic.mac 	harqErrorRateD2D:mean 	-nan
attr source  harqErrorRateD2D
attr title  "Harq Error Rate D2D, mean"
attr unit  ""
scalar SingleCell.ue[0].nic.mac 	harqErrorRateDl:mean 	0.0011397192146299
attr source  harqErrorRateDl
attr title  "Harq Error Rate Dl, mean"
attr unit  ""
scalar SingleCell.ue[0].nic.mac 	harqErrorRateUl:mean 	0.011363636363636
attr source  harqErrorRateUl
attr title  "Harq Error Rate Dl, mean"
attr unit  ""
scalar SingleCell.ue[0].nic.mac 	macPacketLossD2D:mean 	-nan
attr source  macPacketLossD2D
attr title  "Mac Packet Loss D2D, mean"
attr unit  ""
scalar SingleCell.ue[0].nic.mac 	macPacketLossDl:mean 	0
attr source  macPacketLossDl
attr title  "Mac Packet Loss, mean"
attr unit  ""
scalar SingleCell.ue[0].nic.mac 	macPacketLossUl:mean 	0
attr source  macPacketLossUl
attr title  "Mac Packet Loss, mean"
attr unit  ""
scalar SingleCell.ue[0].nic.mac 	macCellPacketLossD2D:mean 	-nan
attr source  macCellPacketLossD2D
attr title  "Mac Cell Packet Loss D2D, mean"
attr unit  ""
scalar SingleCell.ue[0].nic.mac 	macCellPacketLossUl:mean 	-nan
attr source  macCellPacketLossUl
attr title  "Mac Cell Packet Loss, mean"
attr unit  ""
scalar SingleCell.ue[0].nic.mac 	macCellPacketLossDl:mean 	-nan
attr source  macCellPacketLossDl
attr title  "Mac Cell Packet Loss, mean"
attr unit  ""
scalar SingleCell.ue[0].nic.mac 	macThroughputDl:lteRate 	109538.34342659
attr source  macThroughputDl
attr title  "Throughput at the MAC layer DL, lteRate"
attr unit  Bps
scalar SingleCell.ue[0].nic.mac 	macDelayDl:lteAvg 	0.0040068461179401
attr source  macDelayDl
attr title  "Delay at the MAC layer UL, lteAvg"
attr unit  s
scalar SingleCell.ue[0].nic.mac 	sentPacketToLowerLayer:count 	19459
attr interpolationmode  none
attr source  sentPacketToLowerLayer
scalar SingleCell.ue[0].nic.mac 	sentPacketToLowerLayer:sum(packetBytes) 	2151
attr interpolationmode  none
attr source  sentPacketToLowerLayer
scalar SingleCell.ue[0].nic.mac 	sentPacketToUpperLayer:count 	19368
attr interpolationmode  none
attr source  sentPacketToUpperLayer
scalar SingleCell.ue[0].nic.mac 	sentPacketToUpperLayer:sum(packetBytes) 	21648606
attr interpolationmode  none
attr source  sentPacketToUpperLayer
scalar SingleCell.ue[0].nic.mac 	receivedPacketFromLowerLayer:count 	107685
attr interpolationmode  none
attr source  receivedPacketFromLowerLayer
scalar SingleCell.ue[0].nic.mac 	receivedPacketFromLowerLayer:sum(packetBytes) 	21726358
attr interpolationmode  none
attr source  receivedPacketFromLowerLayer
scalar SingleCell.ue[0].nic.mac 	receivedPacketFromUpperLayer:count 	137
attr interpolationmode  none
attr source  receivedPacketFromUpperLayer
scalar SingleCell.ue[0].nic.mac 	receivedPacketFromUpperLayer:sum(packetBytes) 	3772
attr interpolationmode  none
attr source  receivedPacketFromUpperLayer
scalar SingleCell.ue[0].nic.mac 	averageCqiDl:lteAvg 	14.993679738901
attr source  averageCqiDl
attr title  "Average Cqi reported in DL, lteAvg"
attr unit  cqi
scalar SingleCell.ue[0].networkLayer.arp 	failedARPResolution:count 	0
attr title  "ARP failed resolutions, count"
scalar SingleCell.ue[0].networkLayer.arp 	completedARPResolution:count 	0
attr title  "ARP completed resolutions, count"
scalar SingleCell.ue[0].networkLayer.arp 	initiatedARPResolution:count 	0
attr title  "ARP initiated resolutions, count"
scalar SingleCell.ue[0].networkLayer.arp 	sentReply:count 	0
attr title  "ARP replies sent, count"
scalar SingleCell.ue[0].networkLayer.arp 	sentReq:count 	0
attr title  "ARP request sent, count"
statistic SingleCell.ue[1].udpApp[0] 	endToEndDelay:stats
field count 23
field mean 8.0180869565217
field stddev 0.039642622887289
field sum 184.416
field sqrsum 1478.698098
field min 8.002
field max 8.198
attr interpolationmode  none
attr source  segmentCompletionTime
attr title  "end-to-end delay, stats"
statistic SingleCell.ue[1].udpApp[1] 	endToEndDelay:stats
field count 22
field mean 8.1720454545455
field stddev 0.7685975773646
field sum 179.785
field sqrsum 1481.616779
field min 8.002
field max 11.613
attr interpolationmode  none
attr source  segmentCompletionTime
attr title  "end-to-end delay, stats"
scalar SingleCell.ue[1].udp 	droppedPkBadChecksum:count 	0
attr interpolationmode  none
attr title  "packets dropped (checksum error), count"
scalar SingleCell.ue[1].udp 	droppedPkWrongPort:count 	0
attr interpolationmode  none
attr title  "packets dropped (wrong port), count"
scalar SingleCell.ue[1].udp 	passedUpPk:count 	30017
attr interpolationmode  none
attr title  "packets passed up, count"
scalar SingleCell.ue[1].udp 	rcvdPk:count 	30017
attr interpolationmode  none
attr source  rcvdPk
attr title  "packets received, count"
scalar SingleCell.ue[1].udp 	rcvdPk:sum(packetBytes) 	30240255
attr interpolationmode  none
attr source  rcvdPk
attr title  "packets received, sum(packetBytes)"
scalar SingleCell.ue[1].udp 	sentPk:count 	47
attr interpolationmode  none
attr source  sentPk
attr title  "packets sent, count"
scalar SingleCell.ue[1].udp 	sentPk:sum(packetBytes) 	705
attr interpolationmode  none
attr source  sentPk
attr title  "packets sent, sum(packetBytes)"
scalar SingleCell.ue[1].nic.pdcpRrc 	sentPacketToLowerLayer:count 	47
attr interpolationmode  none
attr source  sentPacketToLowerLayer
scalar SingleCell.ue[1].nic.pdcpRrc 	sentPacketToLowerLayer:sum(packetBytes) 	1692
attr interpolationmode  none
attr source  sentPacketToLowerLayer
scalar SingleCell.ue[1].nic.pdcpRrc 	sentPacketToUpperLayer:count 	30017
attr interpolationmode  none
attr source  sentPacketToUpperLayer
scalar SingleCell.ue[1].nic.pdcpRrc 	sentPacketToUpperLayer:sum(packetBytes) 	30840595
attr interpolationmode  none
attr source  sentPacketToUpperLayer
scalar SingleCell.ue[1].nic.pdcpRrc 	receivedPacketFromLowerLayer:count 	30017
attr interpolationmode  none
attr source  receivedPacketFromLowerLayer
scalar SingleCell.ue[1].nic.pdcpRrc 	receivedPacketFromLowerLayer:sum(packetBytes) 	30870612
attr interpolationmode  none
attr source  receivedPacketFromLowerLayer
scalar SingleCell.ue[1].nic.pdcpRrc 	receivedPacketFromUpperLayer:count 	47
attr interpolationmode  none
attr source  receivedPacketFromUpperLayer
scalar SingleCell.ue[1].nic.pdcpRrc 	receivedPacketFromUpperLayer:sum(packetBytes) 	1645
attr interpolationmode  none
attr source  receivedPacketFromUpperLayer
scalar SingleCell.ue[1].nic.rlc.um 	rlcPduPacketLossDl:lteAvg 	0
attr source  rlcPduPacketLossDl
attr title  "rlc Packet Loss, lteAvg"
attr unit  ""
scalar SingleCell.ue[1].nic.rlc.um 	rlcPduPacketLossUl:lteAvg 	0
attr source  rlcPduPacketLossUl
attr title  "rlc Packet Loss, lteAvg"
attr unit  ""
scalar SingleCell.ue[1].nic.rlc.um 	rlcPacketLossTotal:lteAvg 	0.74552441574051
attr source  rlcPacketLossTotal
attr title  "rlc Packet Loss, lteAvg"
attr unit  ""
scalar SingleCell.ue[1].nic.rlc.um 	rlcPacketLossDl:lteAvg 	0.74582112554406
attr source  rlcPacketLossDl
attr title  "rlc Packet Loss, lteAvg"
attr unit  ""
scalar SingleCell.ue[1].nic.rlc.um 	rlcPacketLossUl:lteAvg 	0
attr source  rlcPacketLossUl
attr title  "rlc Packet Loss, lteAvg"
attr unit  ""
scalar SingleCell.ue[1].nic.rlc.um 	rlcPduThroughputUl:lteRate 	9.7770117877356
attr source  rlcPduThroughputUl
attr title  "Throughput at the rlc layer UL, lteRate"
attr unit  Bps
scalar SingleCell.ue[1].nic.rlc.um 	rlcPduDelayUl:lteAvg 	0.004
attr source  rlcPduDelayUl
attr title  "Delay at the rlc layer UL, lteAvg"
attr unit  s
scalar SingleCell.ue[1].nic.rlc.um 	rlcPduThroughputDl:lteRate 	164513.38656396
attr source  rlcPduThroughputDl
attr title  "Throughput at the rlc layer DL, lteRate"
attr unit  Bps
scalar SingleCell.ue[1].nic.rlc.um 	rlcPduDelayDl:lteAvg 	0.004008571531042
attr source  rlcPduDelayDl
attr title  "Delay at the rlc layer UL, lteAvg"
attr unit  s
scalar SingleCell.ue[1].nic.rlc.um 	rlcThroughputUl:lteRate 	9.0003829950211
attr source  rlcThroughputUl
attr title  "Throughput at the rlc layer UL, lteRate"
attr unit  Bps
scalar SingleCell.ue[1].nic.rlc.um 	rlcDelayUl:lteAvg 	0.090063829787234
attr source  rlcDelayUl
attr title  "Delay at the rlc layer UL, lteAvg"
attr unit  s
scalar SingleCell.ue[1].nic.rlc.um 	rlcThroughputDl:lteRate 	164216.73839148
attr source  rlcThroughputDl
attr title  "Throughput at the rlc layer DL, lteRate"
attr unit  Bps
scalar SingleCell.ue[1].nic.rlc.um 	rlcDelayDl:lteAvg 	0.0050066023047202
attr source  rlcDelayDl
attr title  "Delay at the rlc layer UL, lteAvg"
attr unit  s
scalar SingleCell.ue[1].nic.mac 	measuredItbs:mean 	-nan
attr source  measuredItbs
attr title  "TBS index, mean"
attr unit  ""
scalar SingleCell.ue[1].nic.mac 	harqErrorRate_4th_D2D:mean 	-nan
attr source  harqErrorRate_4th_D2D
attr title  "Harq Error Rate D2D, mean"
attr unit  ""
scalar SingleCell.ue[1].nic.mac 	harqErrorRate_4th_Dl:mean 	-nan
attr source  harqErrorRate_4th_Dl
attr title  "Harq Error Rate Dl, mean"
attr unit  ""
scalar SingleCell.ue[1].nic.mac 	harqErrorRate_4th_Ul:mean 	-nan
attr source  harqErrorRate_4th_Ul
attr title  "Harq Error Rate Dl, mean"
attr unit  ""
scalar SingleCell.ue[1].nic.mac 	harqErrorRate_3rd_D2D:mean 	-nan
attr source  harqErrorRate_3rd_D2D
attr title  "Harq Error Rate D2D, mean"
attr unit  ""
scalar SingleCell.ue[1].nic.mac 	harqErrorRate_3rd_Dl:mean 	-nan
attr source  harqErrorRate_3rd_Dl
attr title  "Harq Error Rate Dl, mean"
attr unit  ""
scalar SingleCell.ue[1].nic.mac 	harqErrorRate_3rd_Ul:mean 	-nan
attr source  harqErrorRate_3rd_Ul
attr title  "Harq Error Rate Dl, mean"
attr unit  ""
scalar SingleCell.ue[1].nic.mac 	harqErrorRate_2nd_D2D:mean 	-nan
attr source  harqErrorRate_2nd_D2D
attr title  "Harq Error Rate D2D, mean"
attr unit  ""
scalar SingleCell.ue[1].nic.mac 	harqErrorRate_2nd_Dl:mean 	0
attr source  harqErrorRate_2nd_Dl
attr title  "Harq Error Rate Dl, mean"
attr unit  ""
scalar SingleCell.ue[1].nic.mac 	harqErrorRate_2nd_Ul:mean 	0
attr source  harqErrorRate_2nd_Ul
attr title  "Harq Error Rate Dl, mean"
attr unit  ""
scalar SingleCell.ue[1].nic.mac 	harqErrorRate_1st_D2D:mean 	-nan
attr source  harqErrorRate_1st_D2D
attr title  "Harq Error Rate D2D, mean"
attr unit  ""
scalar SingleCell.ue[1].nic.mac 	harqErrorRate_1st_Dl:mean 	0.0013987017178926
attr source  harqErrorRate_1st_Dl
attr title  "Harq Error Rate Dl, mean"
attr unit  ""
scalar SingleCell.ue[1].nic.mac 	harqErrorRate_1st_Ul:mean 	0.015815085158151
attr source  harqErrorRate_1st_Ul
attr title  "Harq Error Rate Dl, mean"
attr unit  ""
scalar SingleCell.ue[1].nic.mac 	harqErrorRateD2D:mean 	-nan
attr source  harqErrorRateD2D
attr title  "Harq Error Rate D2D, mean"
attr unit  ""
scalar SingleCell.ue[1].nic.mac 	harqErrorRateDl:mean 	0.0013967480839481
attr source  harqErrorRateDl
attr title  "Harq Error Rate Dl, mean"
attr unit  ""
scalar SingleCell.ue[1].nic.mac 	harqErrorRateUl:mean 	0.015568862275449
attr source  harqErrorRateUl
attr title  "Harq Error Rate Dl, mean"
attr unit  ""
scalar SingleCell.ue[1].nic.mac 	macPacketLossD2D:mean 	-nan
attr source  macPacketLossD2D
attr title  "Mac Packet Loss D2D, mean"
attr unit  ""
scalar SingleCell.ue[1].nic.mac 	macPacketLossDl:mean 	0
attr source  macPacketLossDl
attr title  "Mac Packet Loss, mean"
attr unit  ""
scalar SingleCell.ue[1].nic.mac 	macPacketLossUl:mean 	0
attr source  macPacketLossUl
attr title  "Mac Packet Loss, mean"
attr unit  ""
scalar SingleCell.ue[1].nic.mac 	macCellPacketLossD2D:mean 	-nan
attr source  macCellPacketLossD2D
attr title  "Mac Cell Packet Loss D2D, mean"
attr unit  ""
scalar SingleCell.ue[1].nic.mac 	macCellPacketLossUl:mean 	-nan
attr source  macCellPacketLossUl
attr title  "Mac Cell Packet Loss, mean"
attr unit  ""
scalar SingleCell.ue[1].nic.mac 	macCellPacketLossDl:mean 	-nan
attr source  macCellPacketLossDl
attr title  "Mac Cell Packet Loss, mean"
attr unit  ""
scalar SingleCell.ue[1].nic.mac 	macThroughputDl:lteRate 	164810.03473644
attr source  macThroughputDl
attr title  "Throughput at the MAC layer DL, lteRate"
attr unit  Bps
scalar SingleCell.ue[1].nic.mac 	macDelayDl:lteAvg 	0.004008571531042
attr source  macDelayDl
attr title  "Delay at the MAC layer UL, lteAvg"
attr unit  s
scalar SingleCell.ue[1].nic.mac 	sentPacketToLowerLayer:count 	29565
attr interpolationmode  none
attr source  sentPacketToLowerLayer
scalar SingleCell.ue[1].nic.mac 	sentPacketToLowerLayer:sum(packetBytes) 	3508
attr interpolationmode  none
attr source  sentPacketToLowerLayer
scalar SingleCell.ue[1].nic.mac 	sentPacketToUpperLayer:count 	28705
attr interpolationmode  none
attr source  sentPacketToUpperLayer
scalar SingleCell.ue[1].nic.mac 	sentPacketToUpperLayer:sum(packetBytes) 	30926378
attr interpolationmode  none
attr source  sentPacketToUpperLayer
scalar SingleCell.ue[1].nic.mac 	receivedPacketFromLowerLayer:count 	73553
attr interpolationmode  none
attr source  receivedPacketFromLowerLayer
scalar SingleCell.ue[1].nic.mac 	receivedPacketFromLowerLayer:sum(packetBytes) 	31023460
attr interpolationmode  none
attr source  receivedPacketFromLowerLayer
scalar SingleCell.ue[1].nic.mac 	receivedPacketFromUpperLayer:count 	869
attr interpolationmode  none
attr source  receivedPacketFromUpperLayer
scalar SingleCell.ue[1].nic.mac 	receivedPacketFromUpperLayer:sum(packetBytes) 	3530
attr interpolationmode  none
attr source  receivedPacketFromUpperLayer
scalar SingleCell.ue[1].nic.mac 	averageCqiDl:lteAvg 	14.990043693145
attr source  averageCqiDl
attr title  "Average Cqi reported in DL, lteAvg"
attr unit  cqi
scalar SingleCell.ue[1].networkLayer.arp 	failedARPResolution:count 	0
attr title  "ARP failed resolutions, count"
scalar SingleCell.ue[1].networkLayer.arp 	completedARPResolution:count 	0
attr title  "ARP completed resolutions, count"
scalar SingleCell.ue[1].networkLayer.arp 	initiatedARPResolution:count 	0
attr title  "ARP initiated resolutions, count"
scalar SingleCell.ue[1].networkLayer.arp 	sentReply:count 	0
attr title  "ARP replies sent, count"
scalar SingleCell.ue[1].networkLayer.arp 	sentReq:count 	0
attr title  "ARP request sent, count"
statistic SingleCell.ue[2].udpApp[0] 	endToEndDelay:stats
field count 16
field mean 8.0085625
field stddev 0.0048849257941266
field sum 128.137
field sqrsum 1026.193531
field min 8.002
field max 8.018
attr interpolationmode  none
attr source  segmentCompletionTime
attr title  "end-to-end delay, stats"
statistic SingleCell.ue[2].udpApp[1] 	endToEndDelay:stats
field count 16
field mean 8.005
field stddev 0.0024494897458793
field sum 128.08
field sqrsum 1025.28049
field min 8.002
field max 8.011
attr interpolationmode  none
attr source  segmentCompletionTime
attr title  "end-to-end delay, stats"
scalar SingleCell.ue[2].udp 	droppedPkBadChecksum:count 	0
attr interpolationmode  none
attr title  "packets dropped (checksum error), count"
scalar SingleCell.ue[2].udp 	droppedPkWrongPort:count 	0
attr interpolationmode  none
attr title  "packets dropped (wrong port), count"
scalar SingleCell.ue[2].udp 	passedUpPk:count 	24123
attr interpolationmode  none
attr title  "packets passed up, count"
scalar SingleCell.ue[2].udp 	rcvdPk:count 	24123
attr interpolationmode  none
attr source  rcvdPk
attr title  "packets received, count"
scalar SingleCell.ue[2].udp 	rcvdPk:sum(packetBytes) 	24307047
attr interpolationmode  none
attr source  rcvdPk
attr title  "packets received, sum(packetBytes)"
scalar SingleCell.ue[2].udp 	sentPk:count 	34
attr interpolationmode  none
attr source  sentPk
attr title  "packets sent, count"
scalar SingleCell.ue[2].udp 	sentPk:sum(packetBytes) 	510
attr interpolationmode  none
attr source  sentPk
attr title  "packets sent, sum(packetBytes)"
scalar SingleCell.ue[2].nic.pdcpRrc 	sentPacketToLowerLayer:count 	34
attr interpolationmode  none
attr source  sentPacketToLowerLayer
scalar SingleCell.ue[2].nic.pdcpRrc 	sentPacketToLowerLayer:sum(packetBytes) 	1224
attr interpolationmode  none
attr source  sentPacketToLowerLayer
scalar SingleCell.ue[2].nic.pdcpRrc 	sentPacketToUpperLayer:count 	24123
attr interpolationmode  none
attr source  sentPacketToUpperLayer
scalar SingleCell.ue[2].nic.pdcpRrc 	sentPacketToUpperLayer:sum(packetBytes) 	24789507
attr interpolationmode  none
attr source  sentPacketToUpperLayer
scalar SingleCell.ue[2].nic.pdcpRrc 	receivedPacketFromLowerLayer:count 	24123
attr interpolationmode  none
attr source  receivedPacketFromLowerLayer
scalar SingleCell.ue[2].nic.pdcpRrc 	receivedPacketFromLowerLayer:sum(packetBytes) 	24813630
attr interpolationmode  none
attr source  receivedPacketFromLowerLayer
scalar SingleCell.ue[2].nic.pdcpRrc 	receivedPacketFromUpperLayer:count 	34
attr interpolationmode  none
attr source  receivedPacketFromUpperLayer
scalar SingleCell.ue[2].nic.pdcpRrc 	receivedPacketFromUpperLayer:sum(packetBytes) 	1190
attr interpolationmode  none
attr source  receivedPacketFromUpperLayer
scalar SingleCell.ue[2].nic.rlc.um 	rlcPduPacketLossDl:lteAvg 	0
attr source  rlcPduPacketLossDl
attr title  "rlc Packet Loss, lteAvg"
attr unit  ""
scalar SingleCell.ue[2].nic.rlc.um 	rlcPduPacketLossUl:lteAvg 	0
attr source  rlcPduPacketLossUl
attr title  "rlc Packet Loss, lteAvg"
attr unit  ""
scalar SingleCell.ue[2].nic.rlc.um 	rlcPacketLossTotal:lteAvg 	0.79855065212315
attr source  rlcPacketLossTotal
attr title  "rlc Packet Loss, lteAvg"
attr unit  ""
scalar SingleCell.ue[2].nic.rlc.um 	rlcPacketLossDl:lteAvg 	0.79877713084533
attr source  rlcPacketLossDl
attr title  "rlc Packet Loss, lteAvg"
attr unit  ""
scalar SingleCell.ue[2].nic.rlc.um 	rlcPacketLossUl:lteAvg 	0
attr source  rlcPacketLossUl
attr title  "rlc Packet Loss, lteAvg"
attr unit  ""
scalar SingleCell.ue[2].nic.rlc.um 	rlcPduThroughputUl:lteRate 	9.9698442981107
attr source  rlcPduThroughputUl
attr title  "Throughput at the rlc layer UL, lteRate"
attr unit  Bps
scalar SingleCell.ue[2].nic.rlc.um 	rlcPduDelayUl:lteAvg 	0.004
attr source  rlcPduDelayUl
attr title  "Delay at the rlc layer UL, lteAvg"
attr unit  s
scalar SingleCell.ue[2].nic.rlc.um 	rlcPduThroughputDl:lteRate 	191250.8943202
attr source  rlcPduThroughputDl
attr title  "Throughput at the rlc layer DL, lteRate"
attr unit  Bps
scalar SingleCell.ue[2].nic.rlc.um 	rlcPduDelayDl:lteAvg 	0.0040077419354848
attr source  rlcPduDelayDl
attr title  "Delay at the rlc layer UL, lteAvg"
attr unit  s
scalar SingleCell.ue[2].nic.rlc.um 	rlcThroughputUl:lteRate 	9.4159640593267
attr source  rlcThroughputUl
attr title  "Throughput at the rlc layer UL, lteRate"
attr unit  Bps
scalar SingleCell.ue[2].nic.rlc.um 	rlcDelayUl:lteAvg 	0.0078235294117647
attr source  rlcDelayUl
attr title  "Delay at the rlc layer UL, lteAvg"
attr unit  s
scalar SingleCell.ue[2].nic.rlc.um 	rlcThroughputDl:lteRate 	190893.1662397
attr source  rlcThroughputDl
attr title  "Throughput at the rlc layer DL, lteRate"
attr unit  Bps
scalar SingleCell.ue[2].nic.rlc.um 	rlcDelayDl:lteAvg 	0.0050063714232871
attr source  rlcDelayDl
attr title  "Delay at the rlc layer UL, lteAvg"
attr unit  s
scalar SingleCell.ue[2].nic.mac 	measuredItbs:mean 	-nan
attr source  measuredItbs
attr title  "TBS index, mean"
attr unit  ""
scalar SingleCell.ue[2].nic.mac 	harqErrorRate_4th_D2D:mean 	-nan
attr source  harqErrorRate_4th_D2D
attr title  "Harq Error Rate D2D, mean"
attr unit  ""
scalar SingleCell.ue[2].nic.mac 	harqErrorRate_4th_Dl:mean 	-nan
attr source  harqErrorRate_4th_Dl
attr title  "Harq Error Rate Dl, mean"
attr unit  ""
scalar SingleCell.ue[2].nic.mac 	harqErrorRate_4th_Ul:mean 	-nan
attr source  harqErrorRate_4th_Ul
attr title  "Harq Error Rate Dl, mean"
attr unit  ""
scalar SingleCell.ue[2].nic.mac 	harqErrorRate_3rd_D2D:mean 	-nan
attr source  harqErrorRate_3rd_D2D
attr title  "Harq Error Rate D2D, mean"
attr unit  ""
scalar SingleCell.ue[2].nic.mac 	harqErrorRate_3rd_Dl:mean 	0
attr source  harqErrorRate_3rd_Dl
attr title  "Harq Error Rate Dl, mean"
attr unit  ""
scalar SingleCell.ue[2].nic.mac 	harqErrorRate_3rd_Ul:mean 	-nan
attr source  harqErrorRate_3rd_Ul
attr title  "Harq Error Rate Dl, mean"
attr unit  ""
scalar SingleCell.ue[2].nic.mac 	harqErrorRate_2nd_D2D:mean 	-nan
attr source  harqErrorRate_2nd_D2D
attr title  "Harq Error Rate D2D, mean"
attr unit  ""
scalar SingleCell.ue[2].nic.mac 	harqErrorRate_2nd_Dl:mean 	0.03448275862069
attr source  harqErrorRate_2nd_Dl
attr title  "Harq Error Rate Dl, mean"
attr unit  ""
scalar SingleCell.ue[2].nic.mac 	harqErrorRate_2nd_Ul:mean 	-nan
attr source  harqErrorRate_2nd_Ul
attr title  "Harq Error Rate Dl, mean"
attr unit  ""
scalar SingleCell.ue[2].nic.mac 	harqErrorRate_1st_D2D:mean 	-nan
attr source  harqErrorRate_1st_D2D
attr title  "Harq Error Rate D2D, mean"
attr unit  ""
scalar SingleCell.ue[2].nic.mac 	harqErrorRate_1st_Dl:mean 	0.001247311827957
attr source  harqErrorRate_1st_Dl
attr title  "Harq Error Rate Dl, mean"
attr unit  ""
scalar SingleCell.ue[2].nic.mac 	harqErrorRate_1st_Ul:mean 	0
attr source  harqErrorRate_1st_Ul
attr title  "Harq Error Rate Dl, mean"
attr unit  ""
scalar SingleCell.ue[2].nic.mac 	harqErrorRateD2D:mean 	-nan
attr source  harqErrorRateD2D
attr title  "Harq Error Rate D2D, mean"
attr unit  ""
scalar SingleCell.ue[2].nic.mac 	harqErrorRateDl:mean 	0.0012886597938144
attr source  harqErrorRateDl
attr title  "Harq Error Rate Dl, mean"
attr unit  ""
scalar SingleCell.ue[2].nic.mac 	harqErrorRateUl:mean 	0
attr source  harqErrorRateUl
attr title  "Harq Error Rate Dl, mean"
attr unit  ""
scalar SingleCell.ue[2].nic.mac 	macPacketLossD2D:mean 	-nan
attr source  macPacketLossD2D
attr title  "Mac Packet Loss D2D, mean"
attr unit  ""
scalar SingleCell.ue[2].nic.mac 	macPacketLossDl:mean 	0
attr source  macPacketLossDl
attr title  "Mac Packet Loss, mean"
attr unit  ""
scalar SingleCell.ue[2].nic.mac 	macPacketLossUl:mean 	0
attr source  macPacketLossUl
attr title  "Mac Packet Loss, mean"
attr unit  ""
scalar SingleCell.ue[2].nic.mac 	macCellPacketLossD2D:mean 	-nan
attr source  macCellPacketLossD2D
attr title  "Mac Cell Packet Loss D2D, mean"
attr unit  ""
scalar SingleCell.ue[2].nic.mac 	macCellPacketLossUl:mean 	-nan
attr source  macCellPacketLossUl
attr title  "Mac Cell Packet Loss, mean"
attr unit  ""
scalar SingleCell.ue[2].nic.mac 	macCellPacketLossDl:mean 	-nan
attr source  macCellPacketLossDl
attr title  "Mac Cell Packet Loss, mean"
attr unit  ""
scalar SingleCell.ue[2].nic.mac 	macThroughputDl:lteRate 	191608.6224007
attr source  macThroughputDl
attr title  "Throughput at the MAC layer DL, lteRate"
attr unit  Bps
scalar SingleCell.ue[2].nic.mac 	macDelayDl:lteAvg 	0.0040077419354848
attr source  macDelayDl
attr title  "Delay at the MAC layer UL, lteAvg"
attr unit  s
scalar SingleCell.ue[2].nic.mac 	sentPacketToLowerLayer:count 	23342
attr interpolationmode  none
attr source  sentPacketToLowerLayer
scalar SingleCell.ue[2].nic.mac 	sentPacketToLowerLayer:sum(packetBytes) 	1368
attr interpolationmode  none
attr source  sentPacketToLowerLayer
scalar SingleCell.ue[2].nic.mac 	sentPacketToUpperLayer:count 	23286
attr interpolationmode  none
attr source  sentPacketToUpperLayer
scalar SingleCell.ue[2].nic.mac 	sentPacketToUpperLayer:sum(packetBytes) 	24860130
attr interpolationmode  none
attr source  sentPacketToUpperLayer
scalar SingleCell.ue[2].nic.mac 	receivedPacketFromLowerLayer:count 	66453
attr interpolationmode  none
attr source  receivedPacketFromLowerLayer
scalar SingleCell.ue[2].nic.mac 	receivedPacketFromLowerLayer:sum(packetBytes) 	24941736
attr interpolationmode  none
attr source  receivedPacketFromLowerLayer
scalar SingleCell.ue[2].nic.mac 	receivedPacketFromUpperLayer:count 	70
attr interpolationmode  none
attr source  receivedPacketFromUpperLayer
scalar SingleCell.ue[2].nic.mac 	receivedPacketFromUpperLayer:sum(packetBytes) 	2520
attr interpolationmode  none
attr source  receivedPacketFromUpperLayer
scalar SingleCell.ue[2].nic.mac 	averageCqiDl:lteAvg 	14.994888316151
attr source  averageCqiDl
attr title  "Average Cqi reported in DL, lteAvg"
attr unit  cqi
scalar SingleCell.ue[2].networkLayer.arp 	failedARPResolution:count 	0
attr title  "ARP failed resolutions, count"
scalar SingleCell.ue[2].networkLayer.arp 	completedARPResolution:count 	0
attr title  "ARP completed resolutions, count"
scalar SingleCell.ue[2].networkLayer.arp 	initiatedARPResolution:count 	0
attr title  "ARP initiated resolutions, count"
[...]
attr interpolationmode  none
attr title  "packets dropped (wrong port), count"
scalar SingleCell.ue[3].udp 	passedUpPk:count 	59598
attr interpolationmode  none
attr title  "packets passed up, count"
scalar SingleCell.ue[3].udp 	rcvdPk:count 	59598
attr interpolationmode  none
attr source  rcvdPk
attr title  "packets received, count"
scalar SingleCell.ue[3].udp 	rcvdPk:sum(packetBytes) 	60074784
attr interpolationmode  none
attr source  rcvdPk
attr title  "packets received, sum(packetBytes)"
scalar SingleCell.ue[3].udp 	sentPk:count 	60
attr interpolationmode  none
attr source  sentPk
attr title  "packets sent, count"
scalar SingleCell.ue[3].udp 	sentPk:sum(packetBytes) 	900
attr interpolationmode  none
attr source  sentPk
attr title  "packets sent, sum(packetBytes)"
scalar SingleCell.ue[3].nic.pdcpRrc 	sentPacketToLowerLayer:count 	60
attr interpolationmode  none
attr source  sentPacketToLowerLayer
scalar SingleCell.ue[3].nic.pdcpRrc 	sentPacketToLowerLayer:sum(packetBytes) 	2160
attr interpolationmode  none
attr source  sentPacketToLowerLayer
scalar SingleCell.ue[3].nic.pdcpRrc 	sentPacketToUpperLayer:count 	59598
attr interpolationmode  none
attr source  sentPacketToUpperLayer
scalar SingleCell.ue[3].nic.pdcpRrc 	sentPacketToUpperLayer:sum(packetBytes) 	61266744
attr interpolationmode  none
attr source  sentPacketToUpperLayer
scalar SingleCell.ue[3].nic.pdcpRrc 	receivedPacketFromLowerLayer:count 	59598
attr interpolationmode  none
attr source  receivedPacketFromLowerLayer
scalar SingleCell.ue[3].nic.pdcpRrc 	receivedPacketFromLowerLayer:sum(packetBytes) 	61326342
attr interpolationmode  none
attr source  receivedPacketFromLowerLayer
scalar SingleCell.ue[3].nic.pdcpRrc 	receivedPacketFromUpperLayer:count 	60
attr interpolationmode  none
attr source  receivedPacketFromUpperLayer
scalar SingleCell.ue[3].nic.pdcpRrc 	receivedPacketFromUpperLayer:sum(packetBytes) 	2100
attr interpolationmode  none
attr source  receivedPacketFromUpperLayer
scalar SingleCell.ue[3].nic.rlc.um 	rlcPduPacketLossDl:lteAvg 	0
attr source  rlcPduPacketLossDl
attr title  "rlc Packet Loss, lteAvg"
attr unit  ""
scalar SingleCell.ue[3].nic.rlc.um 	rlcPduPacketLossUl:lteAvg 	0
attr source  rlcPduPacketLossUl
attr title  "rlc Packet Loss, lteAvg"
attr unit  ""
scalar SingleCell.ue[3].nic.rlc.um 	rlcPacketLossTotal:lteAvg 	0.83198621148029
attr source  rlcPacketLossTotal
attr title  "rlc Packet Loss, lteAvg"
attr unit  ""
scalar SingleCell.ue[3].nic.rlc.um 	rlcPacketLossDl:lteAvg 	0.83212682173862
attr source  rlcPacketLossDl
attr title  "rlc Packet Loss, lteAvg"
attr unit  ""
scalar SingleCell.ue[3].nic.rlc.um 	rlcPacketLossUl:lteAvg 	0
attr source  rlcPacketLossUl
attr title  "rlc Packet Loss, lteAvg"
attr unit  ""
scalar SingleCell.ue[3].nic.rlc.um 	rlcPduThroughputUl:lteRate 	19.017934528969
attr source  rlcPduThroughputUl
attr title  "Throughput at the rlc layer UL, lteRate"
attr unit  Bps
scalar SingleCell.ue[3].nic.rlc.um 	rlcPduDelayUl:lteAvg 	0.004
attr source  rlcPduDelayUl
attr title  "Delay at the rlc layer UL, lteAvg"
attr unit  s
scalar SingleCell.ue[3].nic.rlc.um 	rlcPduThroughputDl:lteRate 	511977.49756224
attr source  rlcPduThroughputDl
attr title  "Throughput at the rlc layer DL, lteRate"
attr unit  Bps
scalar SingleCell.ue[3].nic.rlc.um 	rlcPduDelayDl:lteAvg 	0.0040046020210519
attr source  rlcPduDelayDl
attr title  "Delay at the rlc layer UL, lteAvg"
attr unit  s
scalar SingleCell.ue[3].nic.rlc.um 	rlcThroughputUl:lteRate 	18.001200080005
attr source  rlcThroughputUl
attr title  "Throughput at the rlc layer UL, lteRate"
attr unit  Bps
scalar SingleCell.ue[3].nic.rlc.um 	rlcDelayUl:lteAvg 	0.0090666666666667
attr source  rlcDelayUl
attr title  "Delay at the rlc layer UL, lteAvg"
attr unit  s
scalar SingleCell.ue[3].nic.rlc.um 	rlcThroughputDl:lteRate 	511108.22005717
attr source  rlcThroughputDl
attr title  "Throughput at the rlc layer DL, lteRate"
attr unit  Bps
scalar SingleCell.ue[3].nic.rlc.um 	rlcDelayDl:lteAvg 	0.0050049701908971
attr source  rlcDelayDl
attr title  "Delay at the rlc layer UL, lteAvg"
attr unit  s
scalar SingleCell.ue[3].nic.mac 	measuredItbs:mean 	-nan
attr source  measuredItbs
attr title  "TBS index, mean"
attr unit  ""
scalar SingleCell.ue[3].nic.mac 	harqErrorRate_4th_D2D:mean 	-nan
attr source  harqErrorRate_4th_D2D
attr title  "Harq Error Rate D2D, mean"
attr unit  ""
scalar SingleCell.ue[3].nic.mac 	harqErrorRate_4th_Dl:mean 	-nan
attr source  harqErrorRate_4th_Dl
attr title  "Harq Error Rate Dl, mean"
attr unit  ""
scalar SingleCell.ue[3].nic.mac 	harqErrorRate_4th_Ul:mean 	-nan
attr source  harqErrorRate_4th_Ul
attr title  "Harq Error Rate Dl, mean"
attr unit  ""
scalar SingleCell.ue[3].nic.mac 	harqErrorRate_3rd_D2D:mean 	-nan
attr source  harqErrorRate_3rd_D2D
attr title  "Harq Error Rate D2D, mean"
attr unit  ""
scalar SingleCell.ue[3].nic.mac 	harqErrorRate_3rd_Dl:mean 	-nan
attr source  harqErrorRate_3rd_Dl
attr title  "Harq Error Rate Dl, mean"
attr unit  ""
scalar SingleCell.ue[3].nic.mac 	harqErrorRate_3rd_Ul:mean 	-nan
attr source  harqErrorRate_3rd_Ul
attr title  "Harq Error Rate Dl, mean"
attr unit  ""
scalar SingleCell.ue[3].nic.mac 	harqErrorRate_2nd_D2D:mean 	-nan
attr source  harqErrorRate_2nd_D2D
attr title  "Harq Error Rate D2D, mean"
attr unit  ""
scalar SingleCell.ue[3].nic.mac 	harqErrorRate_2nd_Dl:mean 	0
attr source  harqErrorRate_2nd_Dl
attr title  "Harq Error Rate Dl, mean"
attr unit  ""
scalar SingleCell.ue[3].nic.mac 	harqErrorRate_2nd_Ul:mean 	-nan
attr source  harqErrorRate_2nd_Ul
attr title  "Harq Error Rate Dl, mean"
attr unit  ""
scalar SingleCell.ue[3].nic.mac 	harqErrorRate_1st_D2D:mean 	-nan
attr source  harqErrorRate_1st_D2D
attr title  "Harq Error Rate D2D, mean"
attr unit  ""
scalar SingleCell.ue[3].nic.mac 	harqErrorRate_1st_Dl:mean 	0.00076701821668265
attr source  harqErrorRate_1st_Dl
attr title  "Harq Error Rate Dl, mean"
attr unit  ""
scalar SingleCell.ue[3].nic.mac 	harqErrorRate_1st_Ul:mean 	0
attr source  harqErrorRate_1st_Ul
attr title  "Harq Error Rate Dl, mean"
attr unit  ""
scalar SingleCell.ue[3].nic.mac 	harqErrorRateD2D:mean 	-nan
attr source  harqErrorRateD2D
attr title  "Harq Error Rate D2D, mean"
attr unit  ""
scalar SingleCell.ue[3].nic.mac 	harqErrorRateDl:mean 	0.00076643035064189
attr source  harqErrorRateDl
attr title  "Harq Error Rate Dl, mean"
attr unit  ""
scalar SingleCell.ue[3].nic.mac 	harqErrorRateUl:mean 	0
attr source  harqErrorRateUl
attr title  "Harq Error Rate Dl, mean"
attr unit  ""
scalar SingleCell.ue[3].nic.mac 	macPacketLossD2D:mean 	-nan
attr source  macPacketLossD2D
attr title  "Mac Packet Loss D2D, mean"
attr unit  ""
scalar SingleCell.ue[3].nic.mac 	macPacketLossDl:mean 	0
attr source  macPacketLossDl
attr title  "Mac Packet Loss, mean"
attr unit  ""
scalar SingleCell.ue[3].nic.mac 	macPacketLossUl:mean 	0
attr source  macPacketLossUl
attr title  "Mac Packet Loss, mean"
attr unit  ""
scalar SingleCell.ue[3].nic.mac 	macCellPacketLossD2D:mean 	-nan
attr source  macCellPacketLossD2D
attr title  "Mac Cell Packet Loss D2D, mean"
attr unit  ""
scalar SingleCell.ue[3].nic.mac 	macCellPacketLossUl:mean 	-nan
attr source  macCellPacketLossUl
attr title  "Mac Cell Packet Loss, mean"
attr unit  ""
scalar SingleCell.ue[3].nic.mac 	macCellPacketLossDl:mean 	-nan
attr source  macCellPacketLossDl
attr title  "Mac Cell Packet Loss, mean"
attr unit  ""
scalar SingleCell.ue[3].nic.mac 	macThroughputDl:lteRate 	512846.7750673
attr source  macThroughputDl
attr title  "Throughput at the MAC layer DL, lteRate"
attr unit  Bps
scalar SingleCell.ue[3].nic.mac 	macDelayDl:lteAvg 	0.0040046020210519
attr source  macDelayDl
attr title  "Delay at the MAC layer UL, lteAvg"
attr unit  s
scalar SingleCell.ue[3].nic.mac 	sentPacketToLowerLayer:count 	52314
attr interpolationmode  none
attr source  sentPacketToLowerLayer
scalar SingleCell.ue[3].nic.mac 	sentPacketToLowerLayer:sum(packetBytes) 	2406
attr interpolationmode  none
attr source  sentPacketToLowerLayer
scalar SingleCell.ue[3].nic.mac 	sentPacketToUpperLayer:count 	52213
attr interpolationmode  none
attr source  sentPacketToUpperLayer
scalar SingleCell.ue[3].nic.mac 	sentPacketToUpperLayer:sum(packetBytes) 	61430644
attr interpolationmode  none
attr source  sentPacketToUpperLayer
scalar SingleCell.ue[3].nic.mac 	receivedPacketFromLowerLayer:count 	57529
attr interpolationmode  none
attr source  receivedPacketFromLowerLayer
scalar SingleCell.ue[3].nic.mac 	receivedPacketFromLowerLayer:sum(packetBytes) 	61588618
attr interpolationmode  none
attr source  receivedPacketFromLowerLayer
scalar SingleCell.ue[3].nic.mac 	receivedPacketFromUpperLayer:count 	122
attr interpolationmode  none
attr source  receivedPacketFromUpperLayer
scalar SingleCell.ue[3].nic.mac 	receivedPacketFromUpperLayer:sum(packetBytes) 	4442
attr interpolationmode  none
attr source  receivedPacketFromUpperLayer
scalar SingleCell.ue[3].nic.mac 	averageCqiDl:lteAvg 	14.996838595953
attr source  averageCqiDl
attr title  "Average Cqi reported in DL, lteAvg"
attr unit  cqi
scalar SingleCell.ue[3].networkLayer.arp 	failedARPResolution:count 	0
attr title  "ARP failed resolutions, count"
scalar SingleCell.ue[3].networkLayer.arp 	completedARPResolution:count 	0
attr title  "ARP completed resolutions, count"
scalar SingleCell.ue[3].networkLayer.arp 	initiatedARPResolution:count 	0
attr title  "ARP initiated resolutions, count"
scalar SingleCell.ue[3].networkLayer.arp 	sentReply:count 	0
attr title  "ARP replies sent, count"
scalar SingleCell.ue[3].networkLayer.arp 	sentReq:count 	0
attr title  "ARP request sent, count"
statistic SingleCell.ue[4].udpApp[0] 	endToEndDelay:stats
field count 19
field mean 4.0153157894737
field stddev 0.016809562858854
field sum 76.291
field sqrsum 306.337543
field min 4.006
field max 4.076
attr interpolationmode  none
attr source  segmentCompletionTime
attr title  "end-to-end delay, stats"
statistic SingleCell.ue[4].udpApp[1] 	endToEndDelay:stats
field count 19
field mean 4.0104736842105
field stddev 0.0016113631579092
field sum 76.199
field sqrsum 305.594131
field min 4.009
field max 4.015
attr interpolationmode  none
attr source  segmentCompletionTime
attr title  "end-to-end delay, stats"
scalar SingleCell.ue[4].udp 	droppedPkBadChecksum:count 	0
attr interpolationmode  none
attr title  "packets dropped (checksum error), count"
scalar SingleCell.ue[4].udp 	droppedPkWrongPort:count 	0
attr interpolationmode  none
attr title  "packets dropped (wrong port), count"
scalar SingleCell.ue[4].udp 	passedUpPk:count 	39621
attr interpolationmode  none
attr title  "packets passed up, count"
scalar SingleCell.ue[4].udp 	rcvdPk:count 	39621
attr interpolationmode  none
attr source  rcvdPk
attr title  "packets received, count"
scalar SingleCell.ue[4].udp 	rcvdPk:sum(packetBytes) 	39937968
attr interpolationmode  none
attr source  rcvdPk
attr title  "packets received, sum(packetBytes)"
scalar SingleCell.ue[4].udp 	sentPk:count 	40
attr interpolationmode  none
attr source  sentPk
attr title  "packets sent, count"
scalar SingleCell.ue[4].udp 	sentPk:sum(packetBytes) 	600
attr interpolationmode  none
attr source  sentPk
attr title  "packets sent, sum(packetBytes)"
scalar SingleCell.ue[4].nic.pdcpRrc 	sentPacketToLowerLayer:count 	40
attr interpolationmode  none
attr source  sentPacketToLowerLayer
scalar SingleCell.ue[4].nic.pdcpRrc 	sentPacketToLowerLayer:sum(packetBytes) 	1440
attr interpolationmode  none
attr source  sentPacketToLowerLayer
scalar SingleCell.ue[4].nic.pdcpRrc 	sentPacketToUpperLayer:count 	39621
attr interpolationmode  none
attr source  sentPacketToUpperLayer
scalar SingleCell.ue[4].nic.pdcpRrc 	sentPacketToUpperLayer:sum(packetBytes) 	40730388
attr interpolationmode  none
attr source  sentPacketToUpperLayer
scalar SingleCell.ue[4].nic.pdcpRrc 	receivedPacketFromLowerLayer:count 	39621
attr interpolationmode  none
attr source  receivedPacketFromLowerLayer
scalar SingleCell.ue[4].nic.pdcpRrc 	receivedPacketFromLowerLayer:sum(packetBytes) 	40770009
attr interpolationmode  none
attr source  receivedPacketFromLowerLayer
scalar SingleCell.ue[4].nic.pdcpRrc 	receivedPacketFromUpperLayer:count 	40
attr interpolationmode  none
attr source  receivedPacketFromUpperLayer
scalar SingleCell.ue[4].nic.pdcpRrc 	receivedPacketFromUpperLayer:sum(packetBytes) 	1400
attr interpolationmode  none
attr source  receivedPacketFromUpperLayer
scalar SingleCell.ue[4].nic.rlc.um 	rlcPduPacketLossDl:lteAvg 	0
attr source  rlcPduPacketLossDl
attr title  "rlc Packet Loss, lteAvg"
attr unit  ""
scalar SingleCell.ue[4].nic.rlc.um 	rlcPduPacketLossUl:lteAvg 	0
attr source  rlcPduPacketLossUl
attr title  "rlc Packet Loss, lteAvg"
attr unit  ""
scalar SingleCell.ue[4].nic.rlc.um 	rlcPacketLossTotal:lteAvg 	0.88829523562746
attr source  rlcPacketLossTotal
attr title  "rlc Packet Loss, lteAvg"
attr unit  ""
scalar SingleCell.ue[4].nic.rlc.um 	rlcPacketLossDl:lteAvg 	0.88839532184828
attr source  rlcPacketLossDl
attr title  "rlc Packet Loss, lteAvg"
attr unit  ""
scalar SingleCell.ue[4].nic.rlc.um 	rlcPacketLossUl:lteAvg 	0
attr source  rlcPacketLossUl
attr title  "rlc Packet Loss, lteAvg"
attr unit  ""
scalar SingleCell.ue[4].nic.rlc.um 	rlcPduThroughputUl:lteRate 	19.276927692769
attr source  rlcPduThroughputUl
attr title  "Throughput at the rlc layer UL, lteRate"
attr unit  Bps
scalar SingleCell.ue[4].nic.rlc.um 	rlcPduDelayUl:lteAvg 	0.004
attr source  rlcPduDelayUl
attr title  "Delay at the rlc layer UL, lteAvg"
attr unit  s
scalar SingleCell.ue[4].nic.rlc.um 	rlcPduThroughputDl:lteRate 	510562.00382562
attr source  rlcPduThroughputDl
attr title  "Throughput at the rlc layer DL, lteRate"
attr unit  Bps
scalar SingleCell.ue[4].nic.rlc.um 	rlcPduDelayDl:lteAvg 	0.0040038645080084
attr source  rlcPduDelayDl
attr title  "Delay at the rlc layer UL, lteAvg"
attr unit  s
scalar SingleCell.ue[4].nic.rlc.um 	rlcThroughputUl:lteRate 	18.001800180018
attr source  rlcThroughputUl
attr title  "Throughput at the rlc layer UL, lteRate"
attr unit  Bps
scalar SingleCell.ue[4].nic.rlc.um 	rlcDelayUl:lteAvg 	0.01175
attr source  rlcDelayUl
attr title  "Delay at the rlc layer UL, lteAvg"
attr unit  s
scalar SingleCell.ue[4].nic.rlc.um 	rlcThroughputDl:lteRate 	509707.94004026
attr source  rlcThroughputDl
attr title  "Throughput at the rlc layer DL, lteRate"
attr unit  Bps
scalar SingleCell.ue[4].nic.rlc.um 	rlcDelayDl:lteAvg 	0.0050047564457656
attr source  rlcDelayDl
attr title  "Delay at the rlc layer UL, lteAvg"
attr unit  s
scalar SingleCell.ue[4].nic.mac 	measuredItbs:mean 	-nan
attr source  measuredItbs
attr title  "TBS index, mean"
attr unit  ""
scalar SingleCell.ue[4].nic.mac 	harqErrorRate_4th_D2D:mean 	-nan
attr source  harqErrorRate_4th_D2D
attr title  "Harq Error Rate D2D, mean"
attr unit  ""
scalar SingleCell.ue[4].nic.mac 	harqErrorRate_4th_Dl:mean 	-nan
attr source  harqErrorRate_4th_Dl
attr title  "Harq Error Rate Dl, mean"
attr unit  ""
scalar SingleCell.ue[4].nic.mac 	harqErrorRate_4th_Ul:mean 	-nan
attr source  harqErrorRate_4th_Ul
attr title  "Harq Error Rate Dl, mean"
attr unit  ""
scalar SingleCell.ue[4].nic.mac 	harqErrorRate_3rd_D2D:mean 	-nan
attr source  harqErrorRate_3rd_D2D
attr title  "Harq Error Rate D2D, mean"
attr unit  ""
scalar SingleCell.ue[4].nic.mac 	harqErrorRate_3rd_Dl:mean 	-nan
attr source  harqErrorRate_3rd_Dl
attr title  "Harq Error Rate Dl, mean"
attr unit  ""
scalar SingleCell.ue[4].nic.mac 	harqErrorRate_3rd_Ul:mean 	-nan
attr source  harqErrorRate_3rd_Ul
attr title  "Harq Error Rate Dl, mean"
attr unit  ""
scalar SingleCell.ue[4].nic.mac 	harqErrorRate_2nd_D2D:mean 	-nan
attr source  harqErrorRate_2nd_D2D
attr title  "Harq Error Rate D2D, mean"
attr unit  ""
scalar SingleCell.ue[4].nic.mac 	harqErrorRate_2nd_Dl:mean 	0
attr source  harqErrorRate_2nd_Dl
attr title  "Harq Error Rate Dl, mean"
attr unit  ""
scalar SingleCell.ue[4].nic.mac 	harqErrorRate_2nd_Ul:mean 	0
attr source  harqErrorRate_2nd_Ul
attr title  "Harq Error Rate Dl, mean"
attr unit  ""
scalar SingleCell.ue[4].nic.mac 	harqErrorRate_1st_D2D:mean 	-nan
attr source  harqErrorRate_1st_D2D
attr title  "Harq Error Rate D2D, mean"
attr unit  ""
scalar SingleCell.ue[4].nic.mac 	harqErrorRate_1st_Dl:mean 	0.00064408466785725
attr source  harqErrorRate_1st_Dl
attr title  "Harq Error Rate Dl, mean"
attr unit  ""
scalar SingleCell.ue[4].nic.mac 	harqErrorRate_1st_Ul:mean 	0.015873015873016
attr source  harqErrorRate_1st_Ul
attr title  "Harq Error Rate Dl, mean"
attr unit  ""
scalar SingleCell.ue[4].nic.mac 	harqErrorRateD2D:mean 	-nan
attr source  harqErrorRateD2D
attr title  "Harq Error Rate D2D, mean"
attr unit  ""
scalar SingleCell.ue[4].nic.mac 	harqErrorRateDl:mean 	0.00064367008982124
attr source  harqErrorRateDl
attr title  "Harq Error Rate Dl, mean"
attr unit  ""
scalar SingleCell.ue[4].nic.mac 	harqErrorRateUl:mean 	0.015625
attr source  harqErrorRateUl
attr title  "Harq Error Rate Dl, mean"
attr unit  ""
scalar SingleCell.ue[4].nic.mac 	macPacketLossD2D:mean 	-nan
attr source  macPacketLossD2D
attr title  "Mac Packet Loss D2D, mean"
attr unit  ""
scalar SingleCell.ue[4].nic.mac 	macPacketLossDl:mean 	0
attr source  macPacketLossDl
attr title  "Mac Packet Loss, mean"
attr unit  ""
scalar SingleCell.ue[4].nic.mac 	macPacketLossUl:mean 	0
attr source  macPacketLossUl
attr title  "Mac Packet Loss, mean"
attr unit  ""
scalar SingleCell.ue[4].nic.mac 	macCellPacketLossD2D:mean 	-nan
attr source  macCellPacketLossD2D
attr title  "Mac Cell Packet Loss D2D, mean"
attr unit  ""
scalar SingleCell.ue[4].nic.mac 	macCellPacketLossUl:mean 	-nan
attr source  macCellPacketLossUl
attr title  "Mac Cell Packet Loss, mean"
attr unit  ""
scalar SingleCell.ue[4].nic.mac 	macCellPacketLossDl:mean 	-nan
attr source  macCellPacketLossDl
attr title  "Mac Cell Packet Loss, mean"
attr unit  ""
scalar SingleCell.ue[4].nic.mac 	macThroughputDl:lteRate 	511416.06761099
attr source  macThroughputDl
attr title  "Throughput at the MAC layer DL, lteRate"
attr unit  Bps
scalar SingleCell.ue[4].nic.mac 	macDelayDl:lteAvg 	0.0040038645080084
attr source  macDelayDl
attr title  "Delay at the MAC layer UL, lteAvg"
attr unit  s
scalar SingleCell.ue[4].nic.mac 	sentPacketToLowerLayer:count 	34305
attr interpolationmode  none
attr source  sentPacketToLowerLayer
scalar SingleCell.ue[4].nic.mac 	sentPacketToLowerLayer:sum(packetBytes) 	1670
attr interpolationmode  none
attr source  sentPacketToLowerLayer
scalar SingleCell.ue[4].nic.mac 	sentPacketToUpperLayer:count 	34220
attr interpolationmode  none
attr source  sentPacketToUpperLayer
scalar SingleCell.ue[4].nic.mac 	sentPacketToUpperLayer:sum(packetBytes) 	40838323
attr interpolationmode  none
attr source  sentPacketToUpperLayer
scalar SingleCell.ue[4].nic.mac 	receivedPacketFromLowerLayer:count 	36931
attr interpolationmode  none
attr source  receivedPacketFromLowerLayer
scalar SingleCell.ue[4].nic.mac 	receivedPacketFromLowerLayer:sum(packetBytes) 	40943773
attr interpolationmode  none
attr source  receivedPacketFromLowerLayer
scalar SingleCell.ue[4].nic.mac 	receivedPacketFromUpperLayer:count 	103
attr interpolationmode  none
attr source  receivedPacketFromUpperLayer
scalar SingleCell.ue[4].nic.mac 	receivedPacketFromUpperLayer:sum(packetBytes) 	2982
attr interpolationmode  none
attr source  receivedPacketFromUpperLayer
scalar SingleCell.ue[4].nic.mac 	averageCqiDl:lteAvg 	14.988092451726
attr source  averageCqiDl
attr title  "Average Cqi reported in DL, lteAvg"
attr unit  cqi
scalar SingleCell.ue[4].networkLayer.arp 	failedARPResolution:count 	0
attr title  "ARP failed resolutions, count"
scalar SingleCell.ue[4].networkLayer.arp 	completedARPResolution:count 	0
attr title  "ARP completed resolutions, count"
scalar SingleCell.ue[4].networkLayer.arp 	initiatedARPResolution:count 	0
attr title  "ARP initiated resolutions, count"
scalar SingleCell.ue[4].networkLayer.arp 	sentReply:count 	0
attr title  "ARP replies sent, count"
scalar SingleCell.ue[4].networkLayer.arp 	sentReq:count 	0
attr title  "ARP request sent, count"
