version 2
run Scenario_6-1-20190320-09:01:07-1507
attr configname Scenario_6
attr datetime 20190320-09:01:07
attr experiment Scenario_6
attr inifile omnetpp.ini
attr iterationvars "$0=8, $1=false"
attr iterationvarsf 8,false-
attr measurement "$0=8, $1=false"
attr network SingleCell
attr processid 1507
attr repetition 0
attr replication #0
attr resultdir results
attr runnumber 1
attr seedset 1
param **.bufferSize 7s
param **.channelControl.carrierFrequency 2100e+6Hz
param **.d2d (false)
param **.fbDelay 1
param **.feedbackComputation "xmldoc(\"config_channel.xml\")"
param **.mac.maxBytesPerTti 1KiB
param **.mac.queueSize 1MiB
param **.mac.schedulingDisciplineDl "\"MAXCI\""
param **.mac.schedulingDisciplineUl "\"MAXCI\""
param **.nic.phy.channelModel "xmldoc(\"config_channel.xml\")"
param **.packetInt (8ms)
param **.routingRecorder.enabled false
param **.server.udpApp[*].typename "\"UDPVideoStreamServer\""
param **.server.udpApp[0].viewID 1
param **.server.udpApp[1].viewID 2
param **.server.udpApp[2].viewID 3
param **.server.udpApp[3].viewID 4
param **.server.udpApp[4].viewID 5
param **.server.udpApp[5].viewID 6
param **.server.udpApp[6].viewID 7
param **.ue[*].macCellId 1
param **.ue[*].masterId 1
param **.ue[*].udpApp[*].typename "\"UDPVideoStreamClient\""
param **.ue[*].udpApp[0].viewID 1
param **.ue[*].udpApp[1].viewID 2
param **.ue[*].udpApp[2].viewID 3
param **.ue[*].udpApp[3].viewID 4
param **.ue[*].udpApp[4].viewID 5
param **.ue[*].udpApp[5].viewID 6
param **.ue[*].udpApp[6].viewID 7
param **.ue[0].udpApp[0].startTime 2s
param **.ue[0].udpApp[1].startTime 16s
param **.ue[0].udpApp[2].startTime 25s
param **.ue[0].udpApp[3].startTime 26s
param **.ue[0].udpApp[4].startTime 90s
param **.ue[0].udpApp[5].startTime 91s
param **.ue[0].udpApp[6].startTime 139s
param **.ue[1].udpApp[0].startTime 12s
param **.ue[1].udpApp[1].startTime 20s
param **.ue[1].udpApp[2].startTime 30s
param **.ue[1].udpApp[3].startTime 31s
param **.ue[1].udpApp[4].startTime 112s
param **.ue[1].udpApp[5].startTime 114s
param **.ue[1].udpApp[6].startTime 130s
param *.numUe 2
param *.server.numUdpApps 3
param *.ue[*].mobility.constraintAreaMaxX 486m
param *.ue[*].mobility.constraintAreaMaxY 226m
param *.ue[*].mobility.constraintAreaMinX 457m
param *.ue[*].mobility.constraintAreaMinY 202m
param *.ue[*].mobility.initFromDisplayString false
param *.ue[*].mobility.initialX uniform(457m,486m)
param *.ue[*].mobility.initialY uniform(202m,226m)
param *.ue[*].mobility.initialZ 0
param *.ue[*].mobility.speed 1mps
param *.ue[*].mobilityType "\"LinearMobility\""
param *.ue[*].numUdpApps 3

scalar SingleCell.server.networkLayer.arp 	failedARPResolution:count 	0
attr title  "ARP failed resolutions, count"
scalar SingleCell.server.networkLayer.arp 	completedARPResolution:count 	0
attr title  "ARP completed resolutions, count"
scalar SingleCell.server.networkLayer.arp 	initiatedARPResolution:count 	0
attr title  "ARP initiated resolutions, count"
scalar SingleCell.server.networkLayer.arp 	sentReply:count 	0
attr title  "ARP replies sent, count"
scalar SingleCell.server.networkLayer.arp 	sentReq:count 	0
attr title  "ARP request sent, count"
scalar SingleCell.server.lo0.lo 	droppedPkBitError:count 	0
attr interpolationmode  none
attr source  dropPkBitError
attr title  "packets dropped/bit error, count"
scalar SingleCell.server.lo0.lo 	droppedPkBitError:sum(packetBytes) 	0
attr interpolationmode  none
attr source  dropPkBitError
attr title  "packets dropped/bit error, sum(packetBytes)"
scalar SingleCell.server.lo0.lo 	rcvdPkFromHL:count 	0
attr interpolationmode  none
attr source  packetReceivedFromUpper
attr title  "packets received from higher layer, count"
scalar SingleCell.server.lo0.lo 	rcvdPkFromHL:sum(packetBytes) 	0
attr interpolationmode  none
attr source  packetReceivedFromUpper
attr title  "packets received from higher layer, sum(packetBytes)"
scalar SingleCell.server.lo0.lo 	passedUpPk:count 	0
attr interpolationmode  none
attr source  packetSentToUpper
attr title  "packets passed to higher layer, count"
scalar SingleCell.server.lo0.lo 	passedUpPk:sum(packetBytes) 	0
attr interpolationmode  none
attr source  packetSentToUpper
attr title  "packets passed to higher layer, sum(packetBytes)"
statistic SingleCell.server.ppp[0].queue 	queueingTime:histogram
field count 243775
field mean 5.8871565993192e-07
field stddev 7.5408519607954e-07
field sum 0.1435141599999
field sqrsum 2.2310977359967e-07
field min 0
field max 3.312e-06
attr interpolationmode  none
attr title  "queueing time, histogram"
bin	-INF	0
bin	-0.5	0
bin	-0.46666666666667	0
bin	-0.43333333333333	0
bin	-0.4	0
bin	-0.36666666666667	0
bin	-0.33333333333333	0
bin	-0.3	0
bin	-0.26666666666667	0
bin	-0.23333333333333	0
bin	-0.2	0
bin	-0.16666666666667	0
bin	-0.13333333333333	0
bin	-0.1	0
bin	-0.066666666666667	0
bin	-0.033333333333333	0
bin	0	243775
bin	0.033333333333333	0
bin	0.066666666666667	0
bin	0.1	0
bin	0.13333333333333	0
bin	0.16666666666667	0
bin	0.2	0
bin	0.23333333333333	0
bin	0.26666666666667	0
bin	0.3	0
bin	0.33333333333333	0
bin	0.36666666666667	0
bin	0.4	0
bin	0.43333333333333	0
bin	0.46666666666667	0
bin	0.5	0
scalar SingleCell.server.ppp[0].queue 	dropPk:count 	0
attr interpolationmode  none
attr source  dropPkByQueue
attr title  "dropped packets, count"
scalar SingleCell.server.ppp[0].queue 	dropPk:sum(packetBytes) 	0
attr interpolationmode  none
attr source  dropPkByQueue
attr title  "dropped packets, sum(packetBytes)"
scalar SingleCell.server.ppp[0].queue 	queueLength:max 	4
attr interpolationmode  sample-hold
attr title  "queue length, max"
scalar SingleCell.server.ppp[0].queue 	queueLength:timeavg 	0.00071757079999951
attr interpolationmode  sample-hold
attr title  "queue length, timeavg"
scalar SingleCell.server.ppp[0].queue 	rcvdPk:count 	243775
attr interpolationmode  none
attr title  "received packets, count"
scalar SingleCell.server.ppp[0].queue 	rcvdPk:sum(packetBytes) 	250600700
attr interpolationmode  none
attr title  "received packets, sum(packetBytes)"
scalar SingleCell.server.ppp[0].ppp 	txState:timeavg 	0.0010092285000021
attr interpolationmode  sample-hold
attr title  "tx state, timeavg"
scalar SingleCell.server.ppp[0].ppp 	droppedPkIfaceDown:count 	0
attr interpolationmode  none
attr source  dropPkIfaceDown
attr title  "packets dropped/interface down, count"
scalar SingleCell.server.ppp[0].ppp 	droppedPkIfaceDown:sum(packetBytes) 	0
attr interpolationmode  none
attr source  dropPkIfaceDown
attr title  "packets dropped/interface down, sum(packetBytes)"
scalar SingleCell.server.ppp[0].ppp 	droppedPkBitError:count 	0
attr interpolationmode  none
attr source  dropPkBitError
attr title  "packets dropped/bit error, count"
scalar SingleCell.server.ppp[0].ppp 	droppedPkBitError:sum(packetBytes) 	0
attr interpolationmode  none
attr source  dropPkBitError
attr title  "packets dropped/bit error, sum(packetBytes)"
scalar SingleCell.server.ppp[0].ppp 	rxPkOk:count 	249
attr interpolationmode  none
attr source  rxPkOk
attr title  "packets received OK, count"
scalar SingleCell.server.ppp[0].ppp 	rxPkOk:sum(packetBytes) 	10458
attr interpolationmode  none
attr source  rxPkOk
attr title  "packets received OK, sum(packetBytes)"
scalar SingleCell.server.ppp[0].ppp 	txPk:count 	243775
attr interpolationmode  none
attr source  packetSentToLower
attr title  "packets transmitted, count"
scalar SingleCell.server.ppp[0].ppp 	txPk:sum(packetBytes) 	252307125
attr interpolationmode  none
attr source  packetSentToLower
attr title  "packets transmitted, sum(packetBytes)"
scalar SingleCell.server.ppp[0].ppp 	rcvdPkFromHL:count 	243775
attr interpolationmode  none
attr source  packetReceivedFromUpper
attr title  "packets received from higher layer, count"
scalar SingleCell.server.ppp[0].ppp 	rcvdPkFromHL:sum(packetBytes) 	250600700
attr interpolationmode  none
attr source  packetReceivedFromUpper
attr title  "packets received from higher layer, sum(packetBytes)"
scalar SingleCell.server.ppp[0].ppp 	passedUpPk:count 	249
attr interpolationmode  none
attr source  packetSentToUpper
attr title  "packets passed to higher layer, count"
scalar SingleCell.server.ppp[0].ppp 	passedUpPk:sum(packetBytes) 	8715
attr interpolationmode  none
attr source  packetSentToUpper
attr title  "packets passed to higher layer, sum(packetBytes)"
scalar SingleCell.server.udpApp[0] 	reqStreamBytes:count 	49
attr interpolationmode  none
attr title  "requested stream bytes, count"
scalar SingleCell.server.udpApp[0] 	reqStreamBytes:sum 	49000000
attr interpolationmode  none
attr title  "requested stream bytes, sum"
scalar SingleCell.server.udpApp[0] 	sentPk:count 	48058
attr interpolationmode  none
attr source  sentPk
attr title  "packets sent, count"
scalar SingleCell.server.udpApp[0] 	sentPk:sum(packetBytes) 	48058000
attr interpolationmode  none
attr source  sentPk
attr title  "packets sent, sum(packetBytes)"
scalar SingleCell.server.udpApp[1] 	reqStreamBytes:count 	46
attr interpolationmode  none
attr title  "requested stream bytes, count"
scalar SingleCell.server.udpApp[1] 	reqStreamBytes:sum 	46000000
attr interpolationmode  none
attr title  "requested stream bytes, sum"
scalar SingleCell.server.udpApp[1] 	sentPk:count 	45308
attr interpolationmode  none
attr source  sentPk
attr title  "packets sent, count"
scalar SingleCell.server.udpApp[1] 	sentPk:sum(packetBytes) 	45308000
attr interpolationmode  none
attr source  sentPk
attr title  "packets sent, sum(packetBytes)"
scalar SingleCell.server.udpApp[2] 	reqStreamBytes:count 	44
attr interpolationmode  none
attr title  "requested stream bytes, count"
scalar SingleCell.server.udpApp[2] 	reqStreamBytes:sum 	44000000
attr interpolationmode  none
attr title  "requested stream bytes, sum"
scalar SingleCell.server.udpApp[2] 	sentPk:count 	42969
attr interpolationmode  none
attr source  sentPk
attr title  "packets sent, count"
scalar SingleCell.server.udpApp[2] 	sentPk:sum(packetBytes) 	42969000
attr interpolationmode  none
attr source  sentPk
attr title  "packets sent, sum(packetBytes)"
scalar SingleCell.server.udpApp[3] 	reqStreamBytes:count 	43
attr interpolationmode  none
attr title  "requested stream bytes, count"
scalar SingleCell.server.udpApp[3] 	reqStreamBytes:sum 	43000000
attr interpolationmode  none
attr title  "requested stream bytes, sum"
scalar SingleCell.server.udpApp[3] 	sentPk:count 	42497
attr interpolationmode  none
attr source  sentPk
attr title  "packets sent, count"
scalar SingleCell.server.udpApp[3] 	sentPk:sum(packetBytes) 	42497000
attr interpolationmode  none
attr source  sentPk
attr title  "packets sent, sum(packetBytes)"
scalar SingleCell.server.udpApp[4] 	reqStreamBytes:count 	25
attr interpolationmode  none
attr title  "requested stream bytes, count"
scalar SingleCell.server.udpApp[4] 	reqStreamBytes:sum 	25000000
attr interpolationmode  none
attr title  "requested stream bytes, sum"
scalar SingleCell.server.udpApp[4] 	sentPk:count 	24496
attr interpolationmode  none
attr source  sentPk
attr title  "packets sent, count"
scalar SingleCell.server.udpApp[4] 	sentPk:sum(packetBytes) 	24496000
attr interpolationmode  none
attr source  sentPk
attr title  "packets sent, sum(packetBytes)"
scalar SingleCell.server.udpApp[5] 	reqStreamBytes:count 	25
attr interpolationmode  none
attr title  "requested stream bytes, count"
scalar SingleCell.server.udpApp[5] 	reqStreamBytes:sum 	25000000
attr interpolationmode  none
attr title  "requested stream bytes, sum"
scalar SingleCell.server.udpApp[5] 	sentPk:count 	24217
attr interpolationmode  none
attr source  sentPk
attr title  "packets sent, count"
scalar SingleCell.server.udpApp[5] 	sentPk:sum(packetBytes) 	24217000
attr interpolationmode  none
attr source  sentPk
attr title  "packets sent, sum(packetBytes)"
scalar SingleCell.server.udpApp[6] 	reqStreamBytes:count 	17
attr interpolationmode  none
attr title  "requested stream bytes, count"
scalar SingleCell.server.udpApp[6] 	reqStreamBytes:sum 	17000000
attr interpolationmode  none
attr title  "requested stream bytes, sum"
scalar SingleCell.server.udpApp[6] 	sentPk:count 	16230
attr interpolationmode  none
attr source  sentPk
attr title  "packets sent, count"
scalar SingleCell.server.udpApp[6] 	sentPk:sum(packetBytes) 	16230000
attr interpolationmode  none
attr source  sentPk
attr title  "packets sent, sum(packetBytes)"
scalar SingleCell.server.udp 	droppedPkBadChecksum:count 	0
attr interpolationmode  none
attr title  "packets dropped (checksum error), count"
scalar SingleCell.server.udp 	droppedPkWrongPort:count 	0
attr interpolationmode  none
attr title  "packets dropped (wrong port), count"
scalar SingleCell.server.udp 	passedUpPk:count 	249
attr interpolationmode  none
attr title  "packets passed up, count"
scalar SingleCell.server.udp 	rcvdPk:count 	249
attr interpolationmode  none
attr source  rcvdPk
attr title  "packets received, count"
scalar SingleCell.server.udp 	rcvdPk:sum(packetBytes) 	3735
attr interpolationmode  none
attr source  rcvdPk
attr title  "packets received, sum(packetBytes)"
scalar SingleCell.server.udp 	sentPk:count 	243775
attr interpolationmode  none
attr source  sentPk
attr title  "packets sent, count"
scalar SingleCell.server.udp 	sentPk:sum(packetBytes) 	245725200
attr interpolationmode  none
attr source  sentPk
attr title  "packets sent, sum(packetBytes)"
scalar SingleCell.router.networkLayer.arp 	failedARPResolution:count 	0
attr title  "ARP failed resolutions, count"
scalar SingleCell.router.networkLayer.arp 	completedARPResolution:count 	0
attr title  "ARP completed resolutions, count"
scalar SingleCell.router.networkLayer.arp 	initiatedARPResolution:count 	0
attr title  "ARP initiated resolutions, count"
scalar SingleCell.router.networkLayer.arp 	sentReply:count 	0
attr title  "ARP replies sent, count"
scalar SingleCell.router.networkLayer.arp 	sentReq:count 	0
attr title  "ARP request sent, count"
scalar SingleCell.router.lo0.lo 	droppedPkBitError:count 	0
attr interpolationmode  none
attr source  dropPkBitError
attr title  "packets dropped/bit error, count"
scalar SingleCell.router.lo0.lo 	droppedPkBitError:sum(packetBytes) 	0
attr interpolationmode  none
attr source  dropPkBitError
attr title  "packets dropped/bit error, sum(packetBytes)"
scalar SingleCell.router.lo0.lo 	rcvdPkFromHL:count 	0
attr interpolationmode  none
attr source  packetReceivedFromUpper
attr title  "packets received from higher layer, count"
scalar SingleCell.router.lo0.lo 	rcvdPkFromHL:sum(packetBytes) 	0
attr interpolationmode  none
attr source  packetReceivedFromUpper
attr title  "packets received from higher layer, sum(packetBytes)"
scalar SingleCell.router.lo0.lo 	passedUpPk:count 	0
attr interpolationmode  none
attr source  packetSentToUpper
attr title  "packets passed to higher layer, count"
scalar SingleCell.router.lo0.lo 	passedUpPk:sum(packetBytes) 	0
attr interpolationmode  none
attr source  packetSentToUpper
attr title  "packets passed to higher layer, sum(packetBytes)"
statistic SingleCell.router.ppp[0].queue 	queueingTime:histogram
field count 249
field mean 0
field stddev 0
field sum 0
field sqrsum 0
field min 0
field max 0
attr interpolationmode  none
attr title  "queueing time, histogram"
bin	-INF	0
bin	-0.5	0
bin	-0.46666666666667	0
bin	-0.43333333333333	0
bin	-0.4	0
bin	-0.36666666666667	0
bin	-0.33333333333333	0
bin	-0.3	0
bin	-0.26666666666667	0
bin	-0.23333333333333	0
bin	-0.2	0
bin	-0.16666666666667	0
bin	-0.13333333333333	0
bin	-0.1	0
bin	-0.066666666666667	0
bin	-0.033333333333333	0
bin	0	249
bin	0.033333333333333	0
bin	0.066666666666667	0
bin	0.1	0
bin	0.13333333333333	0
bin	0.16666666666667	0
bin	0.2	0
bin	0.23333333333333	0
bin	0.26666666666667	0
bin	0.3	0
bin	0.33333333333333	0
bin	0.36666666666667	0
bin	0.4	0
bin	0.43333333333333	0
bin	0.46666666666667	0
bin	0.5	0
scalar SingleCell.router.ppp[0].queue 	dropPk:count 	0
attr interpolationmode  none
attr source  dropPkByQueue
attr title  "dropped packets, count"
scalar SingleCell.router.ppp[0].queue 	dropPk:sum(packetBytes) 	0
attr interpolationmode  none
attr source  dropPkByQueue
attr title  "dropped packets, sum(packetBytes)"
scalar SingleCell.router.ppp[0].queue 	queueLength:max 	0
attr interpolationmode  sample-hold
attr title  "queue length, max"
scalar SingleCell.router.ppp[0].queue 	queueLength:timeavg 	0
attr interpolationmode  sample-hold
attr title  "queue length, timeavg"
scalar SingleCell.router.ppp[0].queue 	rcvdPk:count 	249
attr interpolationmode  none
attr title  "received packets, count"
scalar SingleCell.router.ppp[0].queue 	rcvdPk:sum(packetBytes) 	8715
attr interpolationmode  none
attr title  "received packets, sum(packetBytes)"
scalar SingleCell.router.ppp[0].ppp 	txState:timeavg 	4.1832e-08
attr interpolationmode  sample-hold
attr title  "tx state, timeavg"
scalar SingleCell.router.ppp[0].ppp 	droppedPkIfaceDown:count 	0
attr interpolationmode  none
attr source  dropPkIfaceDown
attr title  "packets dropped/interface down, count"
scalar SingleCell.router.ppp[0].ppp 	droppedPkIfaceDown:sum(packetBytes) 	0
attr interpolationmode  none
attr source  dropPkIfaceDown
attr title  "packets dropped/interface down, sum(packetBytes)"
scalar SingleCell.router.ppp[0].ppp 	droppedPkBitError:count 	0
attr interpolationmode  none
attr source  dropPkBitError
attr title  "packets dropped/bit error, count"
scalar SingleCell.router.ppp[0].ppp 	droppedPkBitError:sum(packetBytes) 	0
attr interpolationmode  none
attr source  dropPkBitError
attr title  "packets dropped/bit error, sum(packetBytes)"
scalar SingleCell.router.ppp[0].ppp 	rxPkOk:count 	243775
attr interpolationmode  none
attr source  rxPkOk
attr title  "packets received OK, count"
scalar SingleCell.router.ppp[0].ppp 	rxPkOk:sum(packetBytes) 	252307125
attr interpolationmode  none
attr source  rxPkOk
attr title  "packets received OK, sum(packetBytes)"
scalar SingleCell.router.ppp[0].ppp 	txPk:count 	249
attr interpolationmode  none
attr source  packetSentToLower
attr title  "packets transmitted, count"
scalar SingleCell.router.ppp[0].ppp 	txPk:sum(packetBytes) 	10458
attr interpolationmode  none
attr source  packetSentToLower
attr title  "packets transmitted, sum(packetBytes)"
scalar SingleCell.router.ppp[0].ppp 	rcvdPkFromHL:count 	249
attr interpolationmode  none
attr source  packetReceivedFromUpper
attr title  "packets received from higher layer, count"
scalar SingleCell.router.ppp[0].ppp 	rcvdPkFromHL:sum(packetBytes) 	8715
attr interpolationmode  none
attr source  packetReceivedFromUpper
attr title  "packets received from higher layer, sum(packetBytes)"
scalar SingleCell.router.ppp[0].ppp 	passedUpPk:count 	243775
attr interpolationmode  none
attr source  packetSentToUpper
attr title  "packets passed to higher layer, count"
scalar SingleCell.router.ppp[0].ppp 	passedUpPk:sum(packetBytes) 	250600700
attr interpolationmode  none
attr source  packetSentToUpper
attr title  "packets passed to higher layer, sum(packetBytes)"
statistic SingleCell.router.ppp[1].queue 	queueingTime:histogram
field count 243775
field mean 0
field stddev 0
field sum 0
field sqrsum 0
field min 0
field max 0
attr interpolationmode  none
attr title  "queueing time, histogram"
bin	-INF	0
bin	-0.5	0
bin	-0.46666666666667	0
bin	-0.43333333333333	0
bin	-0.4	0
bin	-0.36666666666667	0
bin	-0.33333333333333	0
bin	-0.3	0
bin	-0.26666666666667	0
bin	-0.23333333333333	0
bin	-0.2	0
bin	-0.16666666666667	0
bin	-0.13333333333333	0
bin	-0.1	0
bin	-0.066666666666667	0
bin	-0.033333333333333	0
bin	0	243775
bin	0.033333333333333	0
bin	0.066666666666667	0
bin	0.1	0
bin	0.13333333333333	0
bin	0.16666666666667	0
bin	0.2	0
bin	0.23333333333333	0
bin	0.26666666666667	0
bin	0.3	0
bin	0.33333333333333	0
bin	0.36666666666667	0
bin	0.4	0
bin	0.43333333333333	0
bin	0.46666666666667	0
bin	0.5	0
scalar SingleCell.router.ppp[1].queue 	dropPk:count 	0
attr interpolationmode  none
attr source  dropPkByQueue
attr title  "dropped packets, count"
scalar SingleCell.router.ppp[1].queue 	dropPk:sum(packetBytes) 	0
attr interpolationmode  none
attr source  dropPkByQueue
attr title  "dropped packets, sum(packetBytes)"
scalar SingleCell.router.ppp[1].queue 	queueLength:max 	0
attr interpolationmode  sample-hold
attr title  "queue length, max"
scalar SingleCell.router.ppp[1].queue 	queueLength:timeavg 	0
attr interpolationmode  sample-hold
attr title  "queue length, timeavg"
scalar SingleCell.router.ppp[1].queue 	rcvdPk:count 	243775
attr interpolationmode  none
attr title  "received packets, count"
scalar SingleCell.router.ppp[1].queue 	rcvdPk:sum(packetBytes) 	250600700
attr interpolationmode  none
attr title  "received packets, sum(packetBytes)"
scalar SingleCell.router.ppp[1].ppp 	txState:timeavg 	0.0010092285000021
attr interpolationmode  sample-hold
attr title  "tx state, timeavg"
scalar SingleCell.router.ppp[1].ppp 	droppedPkIfaceDown:count 	0
attr interpolationmode  none
attr source  dropPkIfaceDown
attr title  "packets dropped/interface down, count"
scalar SingleCell.router.ppp[1].ppp 	droppedPkIfaceDown:sum(packetBytes) 	0
attr interpolationmode  none
attr source  dropPkIfaceDown
attr title  "packets dropped/interface down, sum(packetBytes)"
scalar SingleCell.router.ppp[1].ppp 	droppedPkBitError:count 	0
attr interpolationmode  none
attr source  dropPkBitError
attr title  "packets dropped/bit error, count"
scalar SingleCell.router.ppp[1].ppp 	droppedPkBitError:sum(packetBytes) 	0
attr interpolationmode  none
attr source  dropPkBitError
attr title  "packets dropped/bit error, sum(packetBytes)"
scalar SingleCell.router.ppp[1].ppp 	rxPkOk:count 	249
attr interpolationmode  none
attr source  rxPkOk
attr title  "packets received OK, count"
scalar SingleCell.router.ppp[1].ppp 	rxPkOk:sum(packetBytes) 	10458
attr interpolationmode  none
attr source  rxPkOk
attr title  "packets received OK, sum(packetBytes)"
scalar SingleCell.router.ppp[1].ppp 	txPk:count 	243775
attr interpolationmode  none
attr source  packetSentToLower
attr title  "packets transmitted, count"
scalar SingleCell.router.ppp[1].ppp 	txPk:sum(packetBytes) 	252307125
attr interpolationmode  none
attr source  packetSentToLower
attr title  "packets transmitted, sum(packetBytes)"
scalar SingleCell.router.ppp[1].ppp 	rcvdPkFromHL:count 	243775
attr interpolationmode  none
attr source  packetReceivedFromUpper
attr title  "packets received from higher layer, count"
scalar SingleCell.router.ppp[1].ppp 	rcvdPkFromHL:sum(packetBytes) 	250600700
attr interpolationmode  none
attr source  packetReceivedFromUpper
attr title  "packets received from higher layer, sum(packetBytes)"
scalar SingleCell.router.ppp[1].ppp 	passedUpPk:count 	249
attr interpolationmode  none
attr source  packetSentToUpper
attr title  "packets passed to higher layer, count"
scalar SingleCell.router.ppp[1].ppp 	passedUpPk:sum(packetBytes) 	8715
attr interpolationmode  none
attr source  packetSentToUpper
attr title  "packets passed to higher layer, sum(packetBytes)"
scalar SingleCell.pgw.networkLayer.arp 	failedARPResolution:count 	0
attr title  "ARP failed resolutions, count"
scalar SingleCell.pgw.networkLayer.arp 	completedARPResolution:count 	0
attr title  "ARP completed resolutions, count"
scalar SingleCell.pgw.networkLayer.arp 	initiatedARPResolution:count 	0
attr title  "ARP initiated resolutions, count"
scalar SingleCell.pgw.networkLayer.arp 	sentReply:count 	0
attr title  "ARP replies sent, count"
scalar SingleCell.pgw.networkLayer.arp 	sentReq:count 	0
attr title  "ARP request sent, count"
scalar SingleCell.pgw.lo0.lo 	droppedPkBitError:count 	0
attr interpolationmode  none
attr source  dropPkBitError
attr title  "packets dropped/bit error, count"
scalar SingleCell.pgw.lo0.lo 	droppedPkBitError:sum(packetBytes) 	0
attr interpolationmode  none
attr source  dropPkBitError
attr title  "packets dropped/bit error, sum(packetBytes)"
scalar SingleCell.pgw.lo0.lo 	rcvdPkFromHL:count 	0
attr interpolationmode  none
attr source  packetReceivedFromUpper
attr title  "packets received from higher layer, count"
scalar SingleCell.pgw.lo0.lo 	rcvdPkFromHL:sum(packetBytes) 	0
attr interpolationmode  none
attr source  packetReceivedFromUpper
attr title  "packets received from higher layer, sum(packetBytes)"
scalar SingleCell.pgw.lo0.lo 	passedUpPk:count 	0
attr interpolationmode  none
attr source  packetSentToUpper
attr title  "packets passed to higher layer, count"
scalar SingleCell.pgw.lo0.lo 	passedUpPk:sum(packetBytes) 	0
attr interpolationmode  none
attr source  packetSentToUpper
attr title  "packets passed to higher layer, sum(packetBytes)"
statistic SingleCell.pgw.ppp[0].queue 	queueingTime:histogram
field count 243775
field mean 1.5964255563521e-08
field stddev 2.0457018643021e-08
field sum 0.0038916863999973
field sqrsum 1.6414476288004e-10
field min 0
field max 8.96e-08
attr interpolationmode  none
attr title  "queueing time, histogram"
bin	-INF	0
bin	-0.5	0
bin	-0.46666666666667	0
bin	-0.43333333333333	0
bin	-0.4	0
bin	-0.36666666666667	0
bin	-0.33333333333333	0
bin	-0.3	0
bin	-0.26666666666667	0
bin	-0.23333333333333	0
bin	-0.2	0
bin	-0.16666666666667	0
bin	-0.13333333333333	0
bin	-0.1	0
bin	-0.066666666666667	0
bin	-0.033333333333333	0
bin	0	243775
bin	0.033333333333333	0
bin	0.066666666666667	0
bin	0.1	0
bin	0.13333333333333	0
bin	0.16666666666667	0
bin	0.2	0
bin	0.23333333333333	0
bin	0.26666666666667	0
bin	0.3	0
bin	0.33333333333333	0
bin	0.36666666666667	0
bin	0.4	0
bin	0.43333333333333	0
bin	0.46666666666667	0
bin	0.5	0
scalar SingleCell.pgw.ppp[0].queue 	dropPk:count 	0
attr interpolationmode  none
attr source  dropPkByQueue
attr title  "dropped packets, count"
scalar SingleCell.pgw.ppp[0].queue 	dropPk:sum(packetBytes) 	0
attr interpolationmode  none
attr source  dropPkByQueue
attr title  "dropped packets, sum(packetBytes)"
scalar SingleCell.pgw.ppp[0].queue 	queueLength:max 	1
attr interpolationmode  sample-hold
attr title  "queue length, max"
scalar SingleCell.pgw.ppp[0].queue 	queueLength:timeavg 	1.9458431999987e-05
attr interpolationmode  sample-hold
attr title  "queue length, timeavg"
scalar SingleCell.pgw.ppp[0].queue 	rcvdPk:count 	243775
attr interpolationmode  none
attr title  "received packets, count"
scalar SingleCell.pgw.ppp[0].queue 	rcvdPk:sum(packetBytes) 	257426400
attr interpolationmode  none
attr title  "received packets, sum(packetBytes)"
scalar SingleCell.pgw.ppp[0].ppp 	txState:timeavg 	0.001036531300002
attr interpolationmode  sample-hold
attr title  "tx state, timeavg"
scalar SingleCell.pgw.ppp[0].ppp 	droppedPkIfaceDown:count 	0
attr interpolationmode  none
attr source  dropPkIfaceDown
attr title  "packets dropped/interface down, count"
scalar SingleCell.pgw.ppp[0].ppp 	droppedPkIfaceDown:sum(packetBytes) 	0
attr interpolationmode  none
attr source  dropPkIfaceDown
attr title  "packets dropped/interface down, sum(packetBytes)"
scalar SingleCell.pgw.ppp[0].ppp 	droppedPkBitError:count 	0
attr interpolationmode  none
attr source  dropPkBitError
attr title  "packets dropped/bit error, count"
scalar SingleCell.pgw.ppp[0].ppp 	droppedPkBitError:sum(packetBytes) 	0
attr interpolationmode  none
attr source  dropPkBitError
attr title  "packets dropped/bit error, sum(packetBytes)"
scalar SingleCell.pgw.ppp[0].ppp 	rxPkOk:count 	249
attr interpolationmode  none
attr source  rxPkOk
attr title  "packets received OK, count"
scalar SingleCell.pgw.ppp[0].ppp 	rxPkOk:sum(packetBytes) 	17430
attr interpolationmode  none
attr source  rxPkOk
attr title  "packets received OK, sum(packetBytes)"
scalar SingleCell.pgw.ppp[0].ppp 	txPk:count 	243775
attr interpolationmode  none
attr source  packetSentToLower
attr title  "packets transmitted, count"
scalar SingleCell.pgw.ppp[0].ppp 	txPk:sum(packetBytes) 	259132825
attr interpolationmode  none
attr source  packetSentToLower
attr title  "packets transmitted, sum(packetBytes)"
scalar SingleCell.pgw.ppp[0].ppp 	rcvdPkFromHL:count 	243775
attr interpolationmode  none
attr source  packetReceivedFromUpper
attr title  "packets received from higher layer, count"
scalar SingleCell.pgw.ppp[0].ppp 	rcvdPkFromHL:sum(packetBytes) 	257426400
attr interpolationmode  none
attr source  packetReceivedFromUpper
attr title  "packets received from higher layer, sum(packetBytes)"
scalar SingleCell.pgw.ppp[0].ppp 	passedUpPk:count 	249
attr interpolationmode  none
attr source  packetSentToUpper
attr title  "packets passed to higher layer, count"
scalar SingleCell.pgw.ppp[0].ppp 	passedUpPk:sum(packetBytes) 	15687
attr interpolationmode  none
attr source  packetSentToUpper
attr title  "packets passed to higher layer, sum(packetBytes)"
statistic SingleCell.pgw.pppInterface.queue 	queueingTime:histogram
field count 249
field mean 0
field stddev 0
field sum 0
field sqrsum 0
field min 0
field max 0
attr interpolationmode  none
attr title  "queueing time, histogram"
bin	-INF	0
bin	-0.5	0
bin	-0.46666666666667	0
bin	-0.43333333333333	0
bin	-0.4	0
bin	-0.36666666666667	0
bin	-0.33333333333333	0
bin	-0.3	0
bin	-0.26666666666667	0
bin	-0.23333333333333	0
bin	-0.2	0
bin	-0.16666666666667	0
bin	-0.13333333333333	0
bin	-0.1	0
bin	-0.066666666666667	0
bin	-0.033333333333333	0
bin	0	249
bin	0.033333333333333	0
bin	0.066666666666667	0
bin	0.1	0
bin	0.13333333333333	0
bin	0.16666666666667	0
bin	0.2	0
bin	0.23333333333333	0
bin	0.26666666666667	0
bin	0.3	0
bin	0.33333333333333	0
bin	0.36666666666667	0
bin	0.4	0
bin	0.43333333333333	0
bin	0.46666666666667	0
bin	0.5	0
scalar SingleCell.pgw.pppInterface.queue 	dropPk:count 	0
attr interpolationmode  none
attr source  dropPkByQueue
attr title  "dropped packets, count"
scalar SingleCell.pgw.pppInterface.queue 	dropPk:sum(packetBytes) 	0
attr interpolationmode  none
attr source  dropPkByQueue
attr title  "dropped packets, sum(packetBytes)"
scalar SingleCell.pgw.pppInterface.queue 	queueLength:max 	0
attr interpolationmode  sample-hold
attr title  "queue length, max"
scalar SingleCell.pgw.pppInterface.queue 	queueLength:timeavg 	0
attr interpolationmode  sample-hold
attr title  "queue length, timeavg"
scalar SingleCell.pgw.pppInterface.queue 	rcvdPk:count 	249
attr interpolationmode  none
attr title  "received packets, count"
scalar SingleCell.pgw.pppInterface.queue 	rcvdPk:sum(packetBytes) 	8715
attr interpolationmode  none
attr title  "received packets, sum(packetBytes)"
scalar SingleCell.pgw.pppInterface.ppp 	txState:timeavg 	4.1832e-08
attr interpolationmode  sample-hold
attr title  "tx state, timeavg"
scalar SingleCell.pgw.pppInterface.ppp 	droppedPkIfaceDown:count 	0
attr interpolationmode  none
attr source  dropPkIfaceDown
attr title  "packets dropped/interface down, count"
scalar SingleCell.pgw.pppInterface.ppp 	droppedPkIfaceDown:sum(packetBytes) 	0
attr interpolationmode  none
attr source  dropPkIfaceDown
attr title  "packets dropped/interface down, sum(packetBytes)"
scalar SingleCell.pgw.pppInterface.ppp 	droppedPkBitError:count 	0
attr interpolationmode  none
attr source  dropPkBitError
attr title  "packets dropped/bit error, count"
scalar SingleCell.pgw.pppInterface.ppp 	droppedPkBitError:sum(packetBytes) 	0
attr interpolationmode  none
attr source  dropPkBitError
attr title  "packets dropped/bit error, sum(packetBytes)"
scalar SingleCell.pgw.pppInterface.ppp 	rxPkOk:count 	243775
attr interpolationmode  none
attr source  rxPkOk
attr title  "packets received OK, count"
scalar SingleCell.pgw.pppInterface.ppp 	rxPkOk:sum(packetBytes) 	252307125
attr interpolationmode  none
attr source  rxPkOk
attr title  "packets received OK, sum(packetBytes)"
scalar SingleCell.pgw.pppInterface.ppp 	txPk:count 	249
attr interpolationmode  none
attr source  packetSentToLower
attr title  "packets transmitted, count"
scalar SingleCell.pgw.pppInterface.ppp 	txPk:sum(packetBytes) 	10458
attr interpolationmode  none
attr source  packetSentToLower
attr title  "packets transmitted, sum(packetBytes)"
scalar SingleCell.pgw.pppInterface.ppp 	rcvdPkFromHL:count 	249
attr interpolationmode  none
attr source  packetReceivedFromUpper
attr title  "packets received from higher layer, count"
scalar SingleCell.pgw.pppInterface.ppp 	rcvdPkFromHL:sum(packetBytes) 	8715
attr interpolationmode  none
attr source  packetReceivedFromUpper
attr title  "packets received from higher layer, sum(packetBytes)"
scalar SingleCell.pgw.pppInterface.ppp 	passedUpPk:count 	243775
attr interpolationmode  none
attr source  packetSentToUpper
attr title  "packets passed to higher layer, count"
scalar SingleCell.pgw.pppInterface.ppp 	passedUpPk:sum(packetBytes) 	250600700
attr interpolationmode  none
attr source  packetSentToUpper
attr title  "packets passed to higher layer, sum(packetBytes)"
scalar SingleCell.pgw.udp 	droppedPkBadChecksum:count 	0
attr interpolationmode  none
attr title  "packets dropped (checksum error), count"
scalar SingleCell.pgw.udp 	droppedPkWrongPort:count 	0
attr interpolationmode  none
attr title  "packets dropped (wrong port), count"
scalar SingleCell.pgw.udp 	passedUpPk:count 	249
attr interpolationmode  none
attr title  "packets passed up, count"
scalar SingleCell.pgw.udp 	rcvdPk:count 	249
attr interpolationmode  none
attr source  rcvdPk
attr title  "packets received, count"
scalar SingleCell.pgw.udp 	rcvdPk:sum(packetBytes) 	10707
attr interpolationmode  none
attr source  rcvdPk
attr title  "packets received, sum(packetBytes)"
scalar SingleCell.pgw.udp 	sentPk:count 	243775
attr interpolationmode  none
attr source  sentPk
attr title  "packets sent, count"
scalar SingleCell.pgw.udp 	sentPk:sum(packetBytes) 	252550900
attr interpolationmode  none
attr source  sentPk
attr title  "packets sent, sum(packetBytes)"
scalar SingleCell.eNodeB.nic.pdcpRrc 	sentPacketToLowerLayer:count 	243775
attr interpolationmode  none
attr source  sentPacketToLowerLayer
scalar SingleCell.eNodeB.nic.pdcpRrc 	sentPacketToLowerLayer:sum(packetBytes) 	250844475
attr interpolationmode  none
attr source  sentPacketToLowerLayer
scalar SingleCell.eNodeB.nic.pdcpRrc 	sentPacketToUpperLayer:count 	249
attr interpolationmode  none
attr source  sentPacketToUpperLayer
scalar SingleCell.eNodeB.nic.pdcpRrc 	sentPacketToUpperLayer:sum(packetBytes) 	8715
attr interpolationmode  none
attr source  sentPacketToUpperLayer
scalar SingleCell.eNodeB.nic.pdcpRrc 	receivedPacketFromLowerLayer:count 	249
attr interpolationmode  none
attr source  receivedPacketFromLowerLayer
scalar SingleCell.eNodeB.nic.pdcpRrc 	receivedPacketFromLowerLayer:sum(packetBytes) 	8964
attr interpolationmode  none
attr source  receivedPacketFromLowerLayer
scalar SingleCell.eNodeB.nic.pdcpRrc 	receivedPacketFromUpperLayer:count 	243775
attr interpolationmode  none
attr source  receivedPacketFromUpperLayer
scalar SingleCell.eNodeB.nic.pdcpRrc 	receivedPacketFromUpperLayer:sum(packetBytes) 	250600700
attr interpolationmode  none
attr source  receivedPacketFromUpperLayer
scalar SingleCell.eNodeB.nic.rlc.um 	rlcCellPacketLossUl:lteAvg 	0
attr source  rlcCellPacketLossUl
attr title  "rlc Cell Packet Loss, lteAvg"
attr unit  ""
scalar SingleCell.eNodeB.nic.rlc.um 	rlcCellPacketLossDl:lteAvg 	0.49999794888625
attr source  rlcCellPacketLossDl
attr title  "rlc Cell Packet Loss, lteAvg"
attr unit  ""
scalar SingleCell.eNodeB.nic.rlc.um 	rlcCellThroughputDl:lteRate 	1266953.6838277
attr source  rlcCellThroughputDl
attr title  "Cell Throughput at the rlc layer DL, lteRate"
attr unit  Bps
scalar SingleCell.eNodeB.nic.rlc.um 	rlcCellThroughputUl:lteRate 	45.274556547739
attr source  rlcCellThroughputUl
attr title  "Cell Throughput at the rlc layer UL, lteRate"
attr unit  Bps
scalar SingleCell.eNodeB.nic.mac 	cqiDlMuMimo0:lteAvg 	14.340463190736
attr source  cqiDlMuMimo0
attr title  "Average cqi MuMimo band 0, lteAvg"
attr unit  cqi
scalar SingleCell.eNodeB.nic.mac 	cqiDlMuMimo0:lteAvg 	13.855222895542
attr source  cqiDlMuMimo0
attr title  "Average cqi MuMimo band 0, lteAvg"
attr unit  cqi
scalar SingleCell.eNodeB.nic.mac 	cqiDlTxDiv0:lteAvg 	14.993550128997
attr source  cqiDlTxDiv0
attr title  "Average cqi TxDiv band 0, lteAvg"
attr unit  cqi
scalar SingleCell.eNodeB.nic.mac 	cqiDlTxDiv0:lteAvg 	14.990430191396
attr source  cqiDlTxDiv0
attr title  "Average cqi TxDiv band 0, lteAvg"
attr unit  cqi
scalar SingleCell.eNodeB.nic.mac 	cqiDlSpmux0:lteAvg 	13.323633527329
attr source  cqiDlSpmux0
attr title  "Average cqi Spmux band 0, lteAvg"
attr unit  cqi
scalar SingleCell.eNodeB.nic.mac 	cqiDlSpmux0:lteAvg 	12.715515689686
attr source  cqiDlSpmux0
attr title  "Average cqi Spmux band 0, lteAvg"
attr unit  cqi
scalar SingleCell.eNodeB.nic.mac 	cqiDlSiso0:lteAvg 	14.340463190736
attr source  cqiDlSiso0
attr title  "Average cqi siso band 0, lteAvg"
attr unit  cqi
scalar SingleCell.eNodeB.nic.mac 	cqiDlSiso0:lteAvg 	13.855222895542
attr source  cqiDlSiso0
attr title  "Average cqi siso band 0, lteAvg"
attr unit  cqi
scalar SingleCell.eNodeB.nic.mac 	depletedPowerUl:lteAvg 	0
attr source  depletedPowerUl
attr title  "LTE ENodeB depleted power Ul, lteAvg"
attr unit  watts
scalar SingleCell.eNodeB.nic.mac 	depletedPowerDl:lteAvg 	313.8174627997
attr source  depletedPowerDl
attr title  "LTE ENodeB depleted power Dl, lteAvg"
attr unit  watts
scalar SingleCell.eNodeB.nic.mac 	avgServedBlocksUl:lteAvg 	0.95007
attr source  avgServedBlocksUl
attr title  "LTE Avg Served Blocks Ul, lteAvg"
attr unit  blocks
scalar SingleCell.eNodeB.nic.mac 	avgServedBlocksDl:lteAvg 	14.313155
attr source  avgServedBlocksDl
attr title  "LTE Avg Served Blocks Dl, lteAvg"
attr unit  blocks
scalar SingleCell.eNodeB.nic.mac 	cellBlocksUtilizationUl:lteAvg 	0.0095006999999921
attr source  cellBlocksUtilizationUl
attr title  "LTE Cell Blocks Utilization Ul, lteAvg"
attr unit  blocks
scalar SingleCell.eNodeB.nic.mac 	cellBlocksUtilizationDl:lteAvg 	0.14313154999988
attr source  cellBlocksUtilizationDl
attr title  "LTE Cell Blocks Utilization Dl, lteAvg"
attr unit  blocks
scalar SingleCell.eNodeB.nic.mac 	measuredItbs:mean 	18.46287280378
attr source  measuredItbs
attr title  "TBS index, mean"
attr unit  ""
scalar SingleCell.eNodeB.nic.mac 	harqErrorRate_4th_D2D:mean 	-nan
attr source  harqErrorRate_4th_D2D
attr title  "Harq Error Rate D2D, mean"
attr unit  ""
scalar SingleCell.eNodeB.nic.mac 	harqErrorRate_4th_Dl:mean 	-nan
attr source  harqErrorRate_4th_Dl
attr title  "Harq Error Rate Dl, mean"
attr unit  ""
scalar SingleCell.eNodeB.nic.mac 	harqErrorRate_4th_Ul:mean 	-nan
attr source  harqErrorRate_4th_Ul
attr title  "Harq Error Rate Dl, mean"
attr unit  ""
scalar SingleCell.eNodeB.nic.mac 	harqErrorRate_3rd_D2D:mean 	-nan
attr source  harqErrorRate_3rd_D2D
attr title  "Harq Error Rate D2D, mean"
attr unit  ""
scalar SingleCell.eNodeB.nic.mac 	harqErrorRate_3rd_Dl:mean 	-nan
attr source  harqErrorRate_3rd_Dl
attr title  "Harq Error Rate Dl, mean"
attr unit  ""
scalar SingleCell.eNodeB.nic.mac 	harqErrorRate_3rd_Ul:mean 	-nan
attr source  harqErrorRate_3rd_Ul
attr title  "Harq Error Rate Dl, mean"
attr unit  ""
scalar SingleCell.eNodeB.nic.mac 	harqErrorRate_2nd_D2D:mean 	-nan
attr source  harqErrorRate_2nd_D2D
attr title  "Harq Error Rate D2D, mean"
attr unit  ""
scalar SingleCell.eNodeB.nic.mac 	harqErrorRate_2nd_Dl:mean 	-nan
attr source  harqErrorRate_2nd_Dl
attr title  "Harq Error Rate Dl, mean"
attr unit  ""
scalar SingleCell.eNodeB.nic.mac 	harqErrorRate_2nd_Ul:mean 	-nan
attr source  harqErrorRate_2nd_Ul
attr title  "Harq Error Rate Dl, mean"
attr unit  ""
scalar SingleCell.eNodeB.nic.mac 	harqErrorRate_1st_D2D:mean 	-nan
attr source  harqErrorRate_1st_D2D
attr title  "Harq Error Rate D2D, mean"
attr unit  ""
scalar SingleCell.eNodeB.nic.mac 	harqErrorRate_1st_Dl:mean 	-nan
attr source  harqErrorRate_1st_Dl
attr title  "Harq Error Rate Dl, mean"
attr unit  ""
scalar SingleCell.eNodeB.nic.mac 	harqErrorRate_1st_Ul:mean 	-nan
attr source  harqErrorRate_1st_Ul
attr title  "Harq Error Rate Dl, mean"
attr unit  ""
scalar SingleCell.eNodeB.nic.mac 	harqErrorRateD2D:mean 	-nan
attr source  harqErrorRateD2D
attr title  "Harq Error Rate D2D, mean"
attr unit  ""
scalar SingleCell.eNodeB.nic.mac 	harqErrorRateDl:mean 	-nan
attr source  harqErrorRateDl
attr title  "Harq Error Rate Dl, mean"
attr unit  ""
scalar SingleCell.eNodeB.nic.mac 	harqErrorRateUl:mean 	-nan
attr source  harqErrorRateUl
attr title  "Harq Error Rate Dl, mean"
attr unit  ""
scalar SingleCell.eNodeB.nic.mac 	macPacketLossD2D:mean 	-nan
attr source  macPacketLossD2D
attr title  "Mac Packet Loss D2D, mean"
attr unit  ""
scalar SingleCell.eNodeB.nic.mac 	macPacketLossDl:mean 	-nan
attr source  macPacketLossDl
attr title  "Mac Packet Loss, mean"
attr unit  ""
scalar SingleCell.eNodeB.nic.mac 	macPacketLossUl:mean 	-nan
attr source  macPacketLossUl
attr title  "Mac Packet Loss, mean"
attr unit  ""
scalar SingleCell.eNodeB.nic.mac 	macCellPacketLossD2D:mean 	-nan
attr source  macCellPacketLossD2D
attr title  "Mac Cell Packet Loss D2D, mean"
attr unit  ""
scalar SingleCell.eNodeB.nic.mac 	macCellPacketLossUl:mean 	0
attr source  macCellPacketLossUl
attr title  "Mac Cell Packet Loss, mean"
attr unit  ""
scalar SingleCell.eNodeB.nic.mac 	macCellPacketLossDl:mean 	0
attr source  macCellPacketLossDl
attr title  "Mac Cell Packet Loss, mean"
attr unit  ""
scalar SingleCell.eNodeB.nic.mac 	macCellThroughputDl:lteRate 	1270390.0306586
attr source  macCellThroughputDl
attr title  "Cell Throughput at the MAC layer DL, lteRate"
attr unit  Bps
scalar SingleCell.eNodeB.nic.mac 	macCellThroughputUl:lteRate 	68.760353953695
attr source  macCellThroughputUl
attr title  "Cell Throughput at the MAC layer UL, lteRate"
attr unit  Bps
scalar SingleCell.ue[0].nic.mac 	macThroughputUl:lteRate 	27.900117176452
attr source  macThroughputUl
attr title  "Throughput at the MAC layer UL, lteRate"
attr unit  Bps
scalar SingleCell.ue[1].nic.mac 	macThroughputUl:lteRate 	43.033746116856
attr source  macThroughputUl
attr title  "Throughput at the MAC layer UL, lteRate"
attr unit  Bps
scalar SingleCell.ue[0].nic.mac 	macDelayUl:lteAvg 	0.0040349344978166
attr source  macDelayUl
attr title  "Delay at the MAC layer UL, lteAvg"
attr unit  s
scalar SingleCell.ue[1].nic.mac 	macDelayUl:lteAvg 	0.0049268897149936
attr source  macDelayUl
attr title  "Delay at the MAC layer UL, lteAvg"
attr unit  s
scalar SingleCell.eNodeB.nic.mac 	sentPacketToLowerLayer:count 	363639
attr interpolationmode  none
attr source  sentPacketToLowerLayer
scalar SingleCell.eNodeB.nic.mac 	sentPacketToLowerLayer:sum(packetBytes) 	251765168
attr interpolationmode  none
attr source  sentPacketToLowerLayer
scalar SingleCell.eNodeB.nic.mac 	sentPacketToUpperLayer:count 	170574
attr interpolationmode  none
attr source  sentPacketToUpperLayer
scalar SingleCell.eNodeB.nic.mac 	sentPacketToUpperLayer:sum(packetBytes) 	9928
attr interpolationmode  none
attr source  sentPacketToUpperLayer
scalar SingleCell.eNodeB.nic.mac 	receivedPacketFromLowerLayer:count 	240538
attr interpolationmode  none
attr source  receivedPacketFromLowerLayer
scalar SingleCell.eNodeB.nic.mac 	receivedPacketFromLowerLayer:sum(packetBytes) 	14299
attr interpolationmode  none
attr source  receivedPacketFromLowerLayer
scalar SingleCell.eNodeB.nic.mac 	receivedPacketFromUpperLayer:count 	413867
attr interpolationmode  none
attr source  receivedPacketFromUpperLayer
scalar SingleCell.eNodeB.nic.mac 	receivedPacketFromUpperLayer:sum(packetBytes) 	502029134
attr interpolationmode  none
attr source  receivedPacketFromUpperLayer
scalar SingleCell.ue[0].nic.mac 	averageCqiUl:lteAvg 	8.6739130434783
attr source  averageCqiUl
attr title  "Average Cqi reported in UL, lteAvg"
attr unit  cqi
scalar SingleCell.ue[1].nic.mac 	averageCqiUl:lteAvg 	2.835091615769
attr source  averageCqiUl
attr title  "Average Cqi reported in UL, lteAvg"
attr unit  cqi
statistic SingleCell.eNodeB.pppIf.queue 	queueingTime:histogram
field count 249
field mean 1.574297188755e-09
field stddev 9.2751131420819e-09
field sum 3.92e-07
field sqrsum 2.1952e-14
field min 0
field max 5.6e-08
attr interpolationmode  none
attr title  "queueing time, histogram"
bin	-INF	0
bin	-2.8e-08	0
bin	-2.4266666666667e-08	0
bin	-2.0533333333333e-08	0
bin	-1.68e-08	0
bin	-1.3066666666667e-08	0
bin	-9.3333333333333e-09	0
bin	-5.6e-09	0
bin	-1.8666666666667e-09	242
bin	1.8666666666667e-09	0
bin	5.6e-09	0
bin	9.3333333333333e-09	0
bin	1.3066666666667e-08	0
bin	1.68e-08	0
bin	2.0533333333333e-08	0
bin	2.4266666666667e-08	0
bin	2.8e-08	0
bin	3.1733333333333e-08	0
bin	3.5466666666667e-08	0
bin	3.92e-08	0
bin	4.2933333333333e-08	0
bin	4.6666666666667e-08	0
bin	5.04e-08	0
bin	5.4133333333333e-08	7
bin	5.7866666666667e-08	0
bin	6.16e-08	0
bin	6.5333333333333e-08	0
bin	6.9066666666667e-08	0
bin	7.28e-08	0
bin	7.6533333333333e-08	0
bin	8.0266666666667e-08	0
bin	8.4e-08	0
scalar SingleCell.eNodeB.pppIf.queue 	dropPk:count 	0
attr interpolationmode  none
attr source  dropPkByQueue
attr title  "dropped packets, count"
scalar SingleCell.eNodeB.pppIf.queue 	dropPk:sum(packetBytes) 	0
attr interpolationmode  none
attr source  dropPkByQueue
attr title  "dropped packets, sum(packetBytes)"
scalar SingleCell.eNodeB.pppIf.queue 	queueLength:max 	1
attr interpolationmode  sample-hold
attr title  "queue length, max"
scalar SingleCell.eNodeB.pppIf.queue 	queueLength:timeavg 	1.96e-09
attr interpolationmode  sample-hold
attr title  "queue length, timeavg"
scalar SingleCell.eNodeB.pppIf.queue 	rcvdPk:count 	249
attr interpolationmode  none
attr title  "received packets, count"
scalar SingleCell.eNodeB.pppIf.queue 	rcvdPk:sum(packetBytes) 	15687
attr interpolationmode  none
attr title  "received packets, sum(packetBytes)"
scalar SingleCell.eNodeB.pppIf.ppp 	txState:timeavg 	6.972e-08
attr interpolationmode  sample-hold
attr title  "tx state, timeavg"
scalar SingleCell.eNodeB.pppIf.ppp 	droppedPkIfaceDown:count 	0
attr interpolationmode  none
attr source  dropPkIfaceDown
attr title  "packets dropped/interface down, count"
scalar SingleCell.eNodeB.pppIf.ppp 	droppedPkIfaceDown:sum(packetBytes) 	0
attr interpolationmode  none
attr source  dropPkIfaceDown
attr title  "packets dropped/interface down, sum(packetBytes)"
scalar SingleCell.eNodeB.pppIf.ppp 	droppedPkBitError:count 	0
attr interpolationmode  none
attr source  dropPkBitError
attr title  "packets dropped/bit error, count"
scalar SingleCell.eNodeB.pppIf.ppp 	droppedPkBitError:sum(packetBytes) 	0
attr interpolationmode  none
attr source  dropPkBitError
attr title  "packets dropped/bit error, sum(packetBytes)"
scalar SingleCell.eNodeB.pppIf.ppp 	rxPkOk:count 	243775
attr interpolationmode  none
attr source  rxPkOk
attr title  "packets received OK, count"
scalar SingleCell.eNodeB.pppIf.ppp 	rxPkOk:sum(packetBytes) 	259132825
attr interpolationmode  none
attr source  rxPkOk
attr title  "packets received OK, sum(packetBytes)"
scalar SingleCell.eNodeB.pppIf.ppp 	txPk:count 	249
attr interpolationmode  none
attr source  packetSentToLower
attr title  "packets transmitted, count"
scalar SingleCell.eNodeB.pppIf.ppp 	txPk:sum(packetBytes) 	17430
attr interpolationmode  none
attr source  packetSentToLower
attr title  "packets transmitted, sum(packetBytes)"
scalar SingleCell.eNodeB.pppIf.ppp 	rcvdPkFromHL:count 	249
attr interpolationmode  none
attr source  packetReceivedFromUpper
attr title  "packets received from higher layer, count"
scalar SingleCell.eNodeB.pppIf.ppp 	rcvdPkFromHL:sum(packetBytes) 	15687
attr interpolationmode  none
attr source  packetReceivedFromUpper
attr title  "packets received from higher layer, sum(packetBytes)"
scalar SingleCell.eNodeB.pppIf.ppp 	passedUpPk:count 	243775
attr interpolationmode  none
attr source  packetSentToUpper
attr title  "packets passed to higher layer, count"
scalar SingleCell.eNodeB.pppIf.ppp 	passedUpPk:sum(packetBytes) 	257426400
attr interpolationmode  none
attr source  packetSentToUpper
attr title  "packets passed to higher layer, sum(packetBytes)"
scalar SingleCell.eNodeB.networkLayer.arp 	failedARPResolution:count 	0
attr title  "ARP failed resolutions, count"
scalar SingleCell.eNodeB.networkLayer.arp 	completedARPResolution:count 	0
attr title  "ARP completed resolutions, count"
scalar SingleCell.eNodeB.networkLayer.arp 	initiatedARPResolution:count 	0
attr title  "ARP initiated resolutions, count"
scalar SingleCell.eNodeB.networkLayer.arp 	sentReply:count 	0
attr title  "ARP replies sent, count"
scalar SingleCell.eNodeB.networkLayer.arp 	sentReq:count 	0
attr title  "ARP request sent, count"
scalar SingleCell.eNodeB.udp 	droppedPkBadChecksum:count 	0
attr interpolationmode  none
attr title  "packets dropped (checksum error), count"
scalar SingleCell.eNodeB.udp 	droppedPkWrongPort:count 	0
attr interpolationmode  none
attr title  "packets dropped (wrong port), count"
scalar SingleCell.eNodeB.udp 	passedUpPk:count 	243775
attr interpolationmode  none
attr title  "packets passed up, count"
scalar SingleCell.eNodeB.udp 	rcvdPk:count 	243775
attr interpolationmode  none
attr source  rcvdPk
attr title  "packets received, count"
scalar SingleCell.eNodeB.udp 	rcvdPk:sum(packetBytes) 	252550900
attr interpolationmode  none
attr source  rcvdPk
attr title  "packets received, sum(packetBytes)"
scalar SingleCell.eNodeB.udp 	sentPk:count 	249
attr interpolationmode  none
attr source  sentPk
attr title  "packets sent, count"
scalar SingleCell.eNodeB.udp 	sentPk:sum(packetBytes) 	10707
attr interpolationmode  none
attr source  sentPk
attr title  "packets sent, sum(packetBytes)"
statistic SingleCell.ue[0].udpApp[0] 	endToEndDelay:stats
field count 24
field mean 8.0045416666667
field stddev 0.0074307186535706
field sum 192.109
field sqrsum 1537.745765
field min 8.002
field max 8.038
attr interpolationmode  none
attr source  segmentCompletionTime
attr title  "end-to-end delay, stats"
statistic SingleCell.ue[0].udpApp[1] 	endToEndDelay:stats
field count 22
field mean 8.005
field stddev 0.00842332362955
field sum 176.11
field sqrsum 1409.76204
field min 8.002
field max 8.041
attr interpolationmode  none
attr source  segmentCompletionTime
attr title  "end-to-end delay, stats"
statistic SingleCell.ue[0].udpApp[2] 	endToEndDelay:stats
field count 21
field mean 8.0043333333333
field stddev 0.0085401014824821
field sum 168.091
field sqrsum 1345.457853
field min 8.002
field max 8.041
attr interpolationmode  none
attr source  segmentCompletionTime
attr title  "end-to-end delay, stats"
statistic SingleCell.ue[0].udpApp[3] 	endToEndDelay:stats
field count 21
field mean 8.0051904761905
field stddev 0.011316443998156
field sum 168.109
field sqrsum 1345.747127
field min 8.002
field max 8.054
attr interpolationmode  none
attr source  segmentCompletionTime
attr title  "end-to-end delay, stats"
statistic SingleCell.ue[0].udpApp[4] 	endToEndDelay:stats
field count 13
field mean 8.0060769230769
field stddev 0.010711843433029
field sum 104.079
field sqrsum 833.265857
field min 8.001
field max 8.041
attr interpolationmode  none
attr source  segmentCompletionTime
attr title  "end-to-end delay, stats"
statistic SingleCell.ue[0].udpApp[5] 	endToEndDelay:stats
field count 13
field mean 8.0039230769231
field stddev 0.0032264928974811
field sum 104.051
field sqrsum 832.816325
field min 8.001
field max 8.011
attr interpolationmode  none
attr source  segmentCompletionTime
attr title  "end-to-end delay, stats"
statistic SingleCell.ue[0].udpApp[6] 	endToEndDelay:stats
field count 7
field mean 8.005
field stddev 0.0039581140276063
field sum 56.035
field sqrsum 448.560269
field min 8.001
field max 8.011
attr interpolationmode  none
attr source  segmentCompletionTime
attr title  "end-to-end delay, stats"
scalar SingleCell.ue[0].udp 	droppedPkBadChecksum:count 	0
attr interpolationmode  none
attr title  "packets dropped (checksum error), count"
scalar SingleCell.ue[0].udp 	droppedPkWrongPort:count 	0
attr interpolationmode  none
attr title  "packets dropped (wrong port), count"
scalar SingleCell.ue[0].udp 	passedUpPk:count 	126297
attr interpolationmode  none
attr title  "packets passed up, count"
scalar SingleCell.ue[0].udp 	rcvdPk:count 	126297
attr interpolationmode  none
attr source  rcvdPk
attr title  "packets received, count"
scalar SingleCell.ue[0].udp 	rcvdPk:sum(packetBytes) 	127307376
attr interpolationmode  none
attr source  rcvdPk
attr title  "packets received, sum(packetBytes)"
scalar SingleCell.ue[0].udp 	sentPk:count 	128
attr interpolationmode  none
attr source  sentPk
attr title  "packets sent, count"
scalar SingleCell.ue[0].udp 	sentPk:sum(packetBytes) 	1920
attr interpolationmode  none
attr source  sentPk
attr title  "packets sent, sum(packetBytes)"
scalar SingleCell.ue[0].nic.pdcpRrc 	sentPacketToLowerLayer:count 	128
attr interpolationmode  none
attr source  sentPacketToLowerLayer
scalar SingleCell.ue[0].nic.pdcpRrc 	sentPacketToLowerLayer:sum(packetBytes) 	4608
attr interpolationmode  none
attr source  sentPacketToLowerLayer
scalar SingleCell.ue[0].nic.pdcpRrc 	sentPacketToUpperLayer:count 	126297
attr interpolationmode  none
attr source  sentPacketToUpperLayer
scalar SingleCell.ue[0].nic.pdcpRrc 	sentPacketToUpperLayer:sum(packetBytes) 	129833316
attr interpolationmode  none
attr source  sentPacketToUpperLayer
scalar SingleCell.ue[0].nic.pdcpRrc 	receivedPacketFromLowerLayer:count 	126297
attr interpolationmode  none
attr source  receivedPacketFromLowerLayer
scalar SingleCell.ue[0].nic.pdcpRrc 	receivedPacketFromLowerLayer:sum(packetBytes) 	129959613
attr interpolationmode  none
attr source  receivedPacketFromLowerLayer
scalar SingleCell.ue[0].nic.pdcpRrc 	receivedPacketFromUpperLayer:count 	128
attr interpolationmode  none
attr source  receivedPacketFromUpperLayer
scalar SingleCell.ue[0].nic.pdcpRrc 	receivedPacketFromUpperLayer:sum(packetBytes) 	4480
attr interpolationmode  none
attr source  receivedPacketFromUpperLayer
scalar SingleCell.ue[0].nic.rlc.um 	rlcPduPacketLossDl:lteAvg 	0
attr source  rlcPduPacketLossDl
attr title  "rlc Packet Loss, lteAvg"
attr unit  ""
scalar SingleCell.ue[0].nic.rlc.um 	rlcPduPacketLossUl:lteAvg 	0
attr source  rlcPduPacketLossUl
attr title  "rlc Packet Loss, lteAvg"
attr unit  ""
scalar SingleCell.ue[0].nic.rlc.um 	rlcPacketLossTotal:lteAvg 	0.4816480659948
attr source  rlcPacketLossTotal
attr title  "rlc Packet Loss, lteAvg"
attr unit  ""
scalar SingleCell.ue[0].nic.rlc.um 	rlcPacketLossDl:lteAvg 	0.48190097222792
attr source  rlcPacketLossDl
attr title  "rlc Packet Loss, lteAvg"
attr unit  ""
scalar SingleCell.ue[0].nic.rlc.um 	rlcPacketLossUl:lteAvg 	0
attr source  rlcPacketLossUl
attr title  "rlc Packet Loss, lteAvg"
attr unit  ""
scalar SingleCell.ue[0].nic.rlc.um 	rlcPduThroughputUl:lteRate 	25.586892399693
attr source  rlcPduThroughputUl
attr title  "Throughput at the rlc layer UL, lteRate"
attr unit  Bps
scalar SingleCell.ue[0].nic.rlc.um 	rlcPduDelayUl:lteAvg 	0.0040349344978166
attr source  rlcPduDelayUl
attr title  "Delay at the rlc layer UL, lteAvg"
attr unit  s
scalar SingleCell.ue[0].nic.rlc.um 	rlcPduThroughputDl:lteRate 	657255.76426735
attr source  rlcPduThroughputDl
attr title  "Throughput at the rlc layer DL, lteRate"
attr unit  Bps
scalar SingleCell.ue[0].nic.rlc.um 	rlcPduDelayDl:lteAvg 	0.0040071935614083
attr source  rlcPduDelayDl
attr title  "Delay at the rlc layer UL, lteAvg"
attr unit  s
scalar SingleCell.ue[0].nic.rlc.um 	rlcThroughputUl:lteRate 	23.273667622934
attr source  rlcThroughputUl
attr title  "Throughput at the rlc layer UL, lteRate"
attr unit  Bps
scalar SingleCell.ue[0].nic.rlc.um 	rlcDelayUl:lteAvg 	0.007640625
attr source  rlcDelayUl
attr title  "Delay at the rlc layer UL, lteAvg"
attr unit  s
scalar SingleCell.ue[0].nic.rlc.um 	rlcThroughputDl:lteRate 	656404.77910166
attr source  rlcThroughputDl
attr title  "Throughput at the rlc layer DL, lteRate"
attr unit  Bps
scalar SingleCell.ue[0].nic.rlc.um 	rlcDelayDl:lteAvg 	0.0050124218112384
attr source  rlcDelayDl
attr title  "Delay at the rlc layer UL, lteAvg"
attr unit  s
scalar SingleCell.ue[0].nic.mac 	measuredItbs:mean 	-nan
attr source  measuredItbs
attr title  "TBS index, mean"
attr unit  ""
scalar SingleCell.ue[0].nic.mac 	harqErrorRate_4th_D2D:mean 	-nan
attr source  harqErrorRate_4th_D2D
attr title  "Harq Error Rate D2D, mean"
attr unit  ""
scalar SingleCell.ue[0].nic.mac 	harqErrorRate_4th_Dl:mean 	-nan
attr source  harqErrorRate_4th_Dl
attr title  "Harq Error Rate Dl, mean"
attr unit  ""
scalar SingleCell.ue[0].nic.mac 	harqErrorRate_4th_Ul:mean 	-nan
attr source  harqErrorRate_4th_Ul
attr title  "Harq Error Rate Dl, mean"
attr unit  ""
scalar SingleCell.ue[0].nic.mac 	harqErrorRate_3rd_D2D:mean 	-nan
attr source  harqErrorRate_3rd_D2D
attr title  "Harq Error Rate D2D, mean"
attr unit  ""
scalar SingleCell.ue[0].nic.mac 	harqErrorRate_3rd_Dl:mean 	0
attr source  harqErrorRate_3rd_Dl
attr title  "Harq Error Rate Dl, mean"
attr unit  ""
scalar SingleCell.ue[0].nic.mac 	harqErrorRate_3rd_Ul:mean 	-nan
attr source  harqErrorRate_3rd_Ul
attr title  "Harq Error Rate Dl, mean"
attr unit  ""
scalar SingleCell.ue[0].nic.mac 	harqErrorRate_2nd_D2D:mean 	-nan
attr source  harqErrorRate_2nd_D2D
attr title  "Harq Error Rate D2D, mean"
attr unit  ""
scalar SingleCell.ue[0].nic.mac 	harqErrorRate_2nd_Dl:mean 	0.02020202020202
attr source  harqErrorRate_2nd_Dl
attr title  "Harq Error Rate Dl, mean"
attr unit  ""
scalar SingleCell.ue[0].nic.mac 	harqErrorRate_2nd_Ul:mean 	0
attr source  harqErrorRate_2nd_Ul
attr title  "Harq Error Rate Dl, mean"
attr unit  ""
scalar SingleCell.ue[0].nic.mac 	harqErrorRate_1st_D2D:mean 	-nan
attr source  harqErrorRate_1st_D2D
attr title  "Harq Error Rate D2D, mean"
attr unit  ""
scalar SingleCell.ue[0].nic.mac 	harqErrorRate_1st_Dl:mean 	0.0011751857743168
attr source  harqErrorRate_1st_Dl
attr title  "Harq Error Rate Dl, mean"
attr unit  ""
scalar SingleCell.ue[0].nic.mac 	harqErrorRate_1st_Ul:mean 	0.0043668122270742
attr source  harqErrorRate_1st_Ul
attr title  "Harq Error Rate Dl, mean"
attr unit  ""
scalar SingleCell.ue[0].nic.mac 	harqErrorRateD2D:mean 	-nan
attr source  harqErrorRateD2D
attr title  "Harq Error Rate D2D, mean"
attr unit  ""
scalar SingleCell.ue[0].nic.mac 	harqErrorRateDl:mean 	0.0011974911966613
attr source  harqErrorRateDl
attr title  "Harq Error Rate Dl, mean"
attr unit  ""
scalar SingleCell.ue[0].nic.mac 	harqErrorRateUl:mean 	0.0043478260869565
attr source  harqErrorRateUl
attr title  "Harq Error Rate Dl, mean"
attr unit  ""
scalar SingleCell.ue[0].nic.mac 	macPacketLossD2D:mean 	-nan
attr source  macPacketLossD2D
attr title  "Mac Packet Loss D2D, mean"
attr unit  ""
scalar SingleCell.ue[0].nic.mac 	macPacketLossDl:mean 	0
attr source  macPacketLossDl
attr title  "Mac Packet Loss, mean"
attr unit  ""
scalar SingleCell.ue[0].nic.mac 	macPacketLossUl:mean 	0
attr source  macPacketLossUl
attr title  "Mac Packet Loss, mean"
attr unit  ""
scalar SingleCell.ue[0].nic.mac 	macCellPacketLossD2D:mean 	-nan
attr source  macCellPacketLossD2D
attr title  "Mac Cell Packet Loss D2D, mean"
attr unit  ""
scalar SingleCell.ue[0].nic.mac 	macCellPacketLossUl:mean 	-nan
attr source  macCellPacketLossUl
attr title  "Mac Cell Packet Loss, mean"
attr unit  ""
scalar SingleCell.ue[0].nic.mac 	macCellPacketLossDl:mean 	-nan
attr source  macCellPacketLossDl
attr title  "Mac Cell Packet Loss, mean"
attr unit  ""
scalar SingleCell.ue[0].nic.mac 	macThroughputDl:lteRate 	658106.74943304
attr source  macThroughputDl
attr title  "Throughput at the MAC layer DL, lteRate"
attr unit  Bps
scalar SingleCell.ue[0].nic.mac 	macDelayDl:lteAvg 	0.0040071935614083
attr source  macDelayDl
attr title  "Delay at the MAC layer UL, lteAvg"
attr unit  s
scalar SingleCell.ue[0].nic.mac 	sentPacketToLowerLayer:count 	84620
attr interpolationmode  none
attr source  sentPacketToLowerLayer
scalar SingleCell.ue[0].nic.mac 	sentPacketToLowerLayer:sum(packetBytes) 	5533
attr interpolationmode  none
attr source  sentPacketToLowerLayer
scalar SingleCell.ue[0].nic.mac 	sentPacketToUpperLayer:count 	84471
attr interpolationmode  none
attr source  sentPacketToUpperLayer
scalar SingleCell.ue[0].nic.mac 	sentPacketToUpperLayer:sum(packetBytes) 	130128097
attr interpolationmode  none
attr source  sentPacketToUpperLayer
scalar SingleCell.ue[0].nic.mac 	receivedPacketFromLowerLayer:count 	248138
attr interpolationmode  none
attr source  receivedPacketFromLowerLayer
scalar SingleCell.ue[0].nic.mac 	receivedPacketFromLowerLayer:sum(packetBytes) 	130467807
attr interpolationmode  none
attr source  receivedPacketFromLowerLayer
scalar SingleCell.ue[0].nic.mac 	receivedPacketFromUpperLayer:count 	357
attr interpolationmode  none
attr source  receivedPacketFromUpperLayer
scalar SingleCell.ue[0].nic.mac 	receivedPacketFromUpperLayer:sum(packetBytes) 	9674
attr interpolationmode  none
attr source  receivedPacketFromUpperLayer
scalar SingleCell.ue[0].nic.mac 	averageCqiDl:lteAvg 	14.991511055783
attr source  averageCqiDl
attr title  "Average Cqi reported in DL, lteAvg"
attr unit  cqi
scalar SingleCell.ue[0].networkLayer.arp 	failedARPResolution:count 	0
attr title  "ARP failed resolutions, count"
scalar SingleCell.ue[0].networkLayer.arp 	completedARPResolution:count 	0
attr title  "ARP completed resolutions, count"
scalar SingleCell.ue[0].networkLayer.arp 	initiatedARPResolution:count 	0
attr title  "ARP initiated resolutions, count"
scalar SingleCell.ue[0].networkLayer.arp 	sentReply:count 	0
attr title  "ARP replies sent, count"
scalar SingleCell.ue[0].networkLayer.arp 	sentReq:count 	0
attr title  "ARP request sent, count"
statistic SingleCell.ue[1].udpApp[0] 	endToEndDelay:stats
field count 23
field mean 8.0613913043478
field stddev 0.11476526998038
field sum 185.412
field sqrsum 1494.968448
field min 8.002
field max 8.487
attr interpolationmode  none
attr source  segmentCompletionTime
attr title  "end-to-end delay, stats"
statistic SingleCell.ue[1].udpApp[1] 	endToEndDelay:stats
field count 22
field mean 8.0641363636364
field stddev 0.13267981346256
field sum 177.411
field sqrsum 1431.036179
field min 8.002
field max 8.575
attr interpolationmode  none
attr source  segmentCompletionTime
attr title  "end-to-end delay, stats"
statistic SingleCell.ue[1].udpApp[2] 	endToEndDelay:stats
field count 21
field mean 8.0545714285714
field stddev 0.10260827034342
field sum 169.146
field sqrsum 1362.609108
field min 8.003
field max 8.389
attr interpolationmode  none
attr source  segmentCompletionTime
attr title  "end-to-end delay, stats"
statistic SingleCell.ue[1].udpApp[3] 	endToEndDelay:stats
field count 20
field mean 8.1457
field stddev 0.40559496259719
field sum 162.914
field sqrsum 1330.174208
field min 8.002
field max 9.806
attr interpolationmode  none
attr source  segmentCompletionTime
attr title  "end-to-end delay, stats"
statistic SingleCell.ue[1].udpApp[4] 	endToEndDelay:stats
field count 10
field mean 8.1938
field stddev 0.434894316664
field sum 81.938
field sqrsum 673.085782
field min 8.003
field max 9.398
attr interpolationmode  none
attr source  segmentCompletionTime
attr title  "end-to-end delay, stats"
statistic SingleCell.ue[1].udpApp[5] 	endToEndDelay:stats
field count 10
field mean 8.1133
field stddev 0.21987221036068
field sum 81.133
field sqrsum 658.691463
field min 8.002
field max 8.632
attr interpolationmode  none
attr source  segmentCompletionTime
attr title  "end-to-end delay, stats"
statistic SingleCell.ue[1].udpApp[6] 	endToEndDelay:stats
field count 8
field mean 8.1145
field stddev 0.25378674962598
field sum 64.916
field sqrsum 527.211736
field min 8.002
field max 8.736
attr interpolationmode  none
attr source  segmentCompletionTime
attr title  "end-to-end delay, stats"
scalar SingleCell.ue[1].udp 	droppedPkBadChecksum:count 	0
attr interpolationmode  none
attr title  "packets dropped (checksum error), count"
scalar SingleCell.ue[1].udp 	droppedPkWrongPort:count 	0
attr interpolationmode  none
attr title  "packets dropped (wrong port), count"
scalar SingleCell.ue[1].udp 	passedUpPk:count 	117474
attr interpolationmode  none
attr title  "packets passed up, count"
scalar SingleCell.ue[1].udp 	rcvdPk:count 	117474
attr interpolationmode  none
attr source  rcvdPk
attr title  "packets received, count"
scalar SingleCell.ue[1].udp 	rcvdPk:sum(packetBytes) 	118413792
attr interpolationmode  none
attr source  rcvdPk
attr title  "packets received, sum(packetBytes)"
scalar SingleCell.ue[1].udp 	sentPk:count 	121
attr interpolationmode  none
attr source  sentPk
attr title  "packets sent, count"
scalar SingleCell.ue[1].udp 	sentPk:sum(packetBytes) 	1815
attr interpolationmode  none
attr source  sentPk
attr title  "packets sent, sum(packetBytes)"
scalar SingleCell.ue[1].nic.pdcpRrc 	sentPacketToLowerLayer:count 	121
attr interpolationmode  none
attr source  sentPacketToLowerLayer
scalar SingleCell.ue[1].nic.pdcpRrc 	sentPacketToLowerLayer:sum(packetBytes) 	4356
attr interpolationmode  none
attr source  sentPacketToLowerLayer
scalar SingleCell.ue[1].nic.pdcpRrc 	sentPacketToUpperLayer:count 	117474
attr interpolationmode  none
attr source  sentPacketToUpperLayer
scalar SingleCell.ue[1].nic.pdcpRrc 	sentPacketToUpperLayer:sum(packetBytes) 	120763272
attr interpolationmode  none
attr source  sentPacketToUpperLayer
scalar SingleCell.ue[1].nic.pdcpRrc 	receivedPacketFromLowerLayer:count 	117474
attr interpolationmode  none
attr source  receivedPacketFromLowerLayer
scalar SingleCell.ue[1].nic.pdcpRrc 	receivedPacketFromLowerLayer:sum(packetBytes) 	120880746
attr interpolationmode  none
attr source  receivedPacketFromLowerLayer
scalar SingleCell.ue[1].nic.pdcpRrc 	receivedPacketFromUpperLayer:count 	121
attr interpolationmode  none
attr source  receivedPacketFromUpperLayer
scalar SingleCell.ue[1].nic.pdcpRrc 	receivedPacketFromUpperLayer:sum(packetBytes) 	4235
attr interpolationmode  none
attr source  receivedPacketFromUpperLayer
scalar SingleCell.ue[1].nic.rlc.um 	rlcPduPacketLossDl:lteAvg 	0
attr source  rlcPduPacketLossDl
attr title  "rlc Packet Loss, lteAvg"
attr unit  ""
scalar SingleCell.ue[1].nic.rlc.um 	rlcPduPacketLossUl:lteAvg 	0
attr source  rlcPduPacketLossUl
attr title  "rlc Packet Loss, lteAvg"
attr unit  ""
scalar SingleCell.ue[1].nic.rlc.um 	rlcPacketLossTotal:lteAvg 	0.51783788659688
attr source  rlcPacketLossTotal
attr title  "rlc Packet Loss, lteAvg"
attr unit  ""
scalar SingleCell.ue[1].nic.rlc.um 	rlcPacketLossDl:lteAvg 	0.51809492554457
attr source  rlcPacketLossDl
attr title  "rlc Packet Loss, lteAvg"
attr unit  ""
scalar SingleCell.ue[1].nic.rlc.um 	rlcPacketLossUl:lteAvg 	0
attr source  rlcPacketLossUl
attr title  "rlc Packet Loss, lteAvg"
attr unit  ""
scalar SingleCell.ue[1].nic.rlc.um 	rlcPduThroughputUl:lteRate 	25.862802672454
attr source  rlcPduThroughputUl
attr title  "Throughput at the rlc layer UL, lteRate"
attr unit  Bps
scalar SingleCell.ue[1].nic.rlc.um 	rlcPduDelayUl:lteAvg 	0.0044110671936759
attr source  rlcPduDelayUl
attr title  "Delay at the rlc layer UL, lteAvg"
attr unit  s
scalar SingleCell.ue[1].nic.rlc.um 	rlcPduThroughputDl:lteRate 	643961.02797623
attr source  rlcPduThroughputDl
attr title  "Throughput at the rlc layer DL, lteRate"
attr unit  Bps
scalar SingleCell.ue[1].nic.rlc.um 	rlcPduDelayDl:lteAvg 	0.0040028655965355
attr source  rlcPduDelayDl
attr title  "Delay at the rlc layer UL, lteAvg"
attr unit  s
scalar SingleCell.ue[1].nic.rlc.um 	rlcThroughputUl:lteRate 	23.171938335834
attr source  rlcThroughputUl
attr title  "Throughput at the rlc layer UL, lteRate"
attr unit  Bps
scalar SingleCell.ue[1].nic.rlc.um 	rlcDelayUl:lteAvg 	0.095355371900827
attr source  rlcDelayUl
attr title  "Delay at the rlc layer UL, lteAvg"
attr unit  s
scalar SingleCell.ue[1].nic.rlc.um 	rlcThroughputDl:lteRate 	643047.68035067
attr source  rlcThroughputDl
attr title  "Throughput at the rlc layer DL, lteRate"
attr unit  Bps
scalar SingleCell.ue[1].nic.rlc.um 	rlcDelayDl:lteAvg 	0.0050029050406157
attr source  rlcDelayDl
attr title  "Delay at the rlc layer UL, lteAvg"
attr unit  s
scalar SingleCell.ue[1].nic.mac 	measuredItbs:mean 	-nan
attr source  measuredItbs
attr title  "TBS index, mean"
attr unit  ""
scalar SingleCell.ue[1].nic.mac 	harqErrorRate_4th_D2D:mean 	-nan
attr source  harqErrorRate_4th_D2D
attr title  "Harq Error Rate D2D, mean"
attr unit  ""
scalar SingleCell.ue[1].nic.mac 	harqErrorRate_4th_Dl:mean 	-nan
attr source  harqErrorRate_4th_Dl
attr title  "Harq Error Rate Dl, mean"
attr unit  ""
scalar SingleCell.ue[1].nic.mac 	harqErrorRate_4th_Ul:mean 	-nan
attr source  harqErrorRate_4th_Ul
attr title  "Harq Error Rate Dl, mean"
attr unit  ""
scalar SingleCell.ue[1].nic.mac 	harqErrorRate_3rd_D2D:mean 	-nan
attr source  harqErrorRate_3rd_D2D
attr title  "Harq Error Rate D2D, mean"
attr unit  ""
scalar SingleCell.ue[1].nic.mac 	harqErrorRate_3rd_Dl:mean 	-nan
attr source  harqErrorRate_3rd_Dl
attr title  "Harq Error Rate Dl, mean"
attr unit  ""
scalar SingleCell.ue[1].nic.mac 	harqErrorRate_3rd_Ul:mean 	0
attr source  harqErrorRate_3rd_Ul
attr title  "Harq Error Rate Dl, mean"
attr unit  ""
scalar SingleCell.ue[1].nic.mac 	harqErrorRate_2nd_D2D:mean 	-nan
attr source  harqErrorRate_2nd_D2D
attr title  "Harq Error Rate D2D, mean"
attr unit  ""
scalar SingleCell.ue[1].nic.mac 	harqErrorRate_2nd_Dl:mean 	0
attr source  harqErrorRate_2nd_Dl
attr title  "Harq Error Rate Dl, mean"
attr unit  ""
scalar SingleCell.ue[1].nic.mac 	harqErrorRate_2nd_Ul:mean 	0.050561797752809
attr source  harqErrorRate_2nd_Ul
attr title  "Harq Error Rate Dl, mean"
attr unit  ""
scalar SingleCell.ue[1].nic.mac 	harqErrorRate_1st_D2D:mean 	-nan
attr source  harqErrorRate_1st_D2D
attr title  "Harq Error Rate D2D, mean"
attr unit  ""
scalar SingleCell.ue[1].nic.mac 	harqErrorRate_1st_Dl:mean 	0.00047760498573009
attr source  harqErrorRate_1st_Dl
attr title  "Harq Error Rate Dl, mean"
attr unit  ""
scalar SingleCell.ue[1].nic.mac 	harqErrorRate_1st_Ul:mean 	0.11028500619579
attr source  harqErrorRate_1st_Ul
attr title  "Harq Error Rate Dl, mean"
attr unit  ""
scalar SingleCell.ue[1].nic.mac 	harqErrorRateD2D:mean 	-nan
attr source  harqErrorRateD2D
attr title  "Harq Error Rate D2D, mean"
attr unit  ""
scalar SingleCell.ue[1].nic.mac 	harqErrorRateDl:mean 	0.00047737698810051
attr source  harqErrorRateDl
attr title  "Harq Error Rate Dl, mean"
attr unit  ""
scalar SingleCell.ue[1].nic.mac 	harqErrorRateUl:mean 	0.10383120488617
attr source  harqErrorRateUl
attr title  "Harq Error Rate Dl, mean"
attr unit  ""
scalar SingleCell.ue[1].nic.mac 	macPacketLossD2D:mean 	-nan
attr source  macPacketLossD2D
attr title  "Mac Packet Loss D2D, mean"
attr unit  ""
scalar SingleCell.ue[1].nic.mac 	macPacketLossDl:mean 	0
attr source  macPacketLossDl
attr title  "Mac Packet Loss, mean"
attr unit  ""
scalar SingleCell.ue[1].nic.mac 	macPacketLossUl:mean 	0
attr source  macPacketLossUl
attr title  "Mac Packet Loss, mean"
attr unit  ""
scalar SingleCell.ue[1].nic.mac 	macCellPacketLossD2D:mean 	-nan
attr source  macCellPacketLossD2D
attr title  "Mac Cell Packet Loss D2D, mean"
attr unit  ""
scalar SingleCell.ue[1].nic.mac 	macCellPacketLossUl:mean 	-nan
attr source  macCellPacketLossUl
attr title  "Mac Cell Packet Loss, mean"
attr unit  ""
scalar SingleCell.ue[1].nic.mac 	macCellPacketLossDl:mean 	-nan
attr source  macCellPacketLossDl
attr title  "Mac Cell Packet Loss, mean"
attr unit  ""
scalar SingleCell.ue[1].nic.mac 	macThroughputDl:lteRate 	644874.37560179
attr source  macThroughputDl
attr title  "Throughput at the MAC layer DL, lteRate"
attr unit  Bps
scalar SingleCell.ue[1].nic.mac 	macDelayDl:lteAvg 	0.0040028655965355
attr source  macDelayDl
attr title  "Delay at the MAC layer UL, lteAvg"
attr unit  s
scalar SingleCell.ue[1].nic.mac 	sentPacketToLowerLayer:count 	89251
attr interpolationmode  none
attr source  sentPacketToLowerLayer
scalar SingleCell.ue[1].nic.mac 	sentPacketToLowerLayer:sum(packetBytes) 	8766
attr interpolationmode  none
attr source  sentPacketToLowerLayer
scalar SingleCell.ue[1].nic.mac 	sentPacketToUpperLayer:count 	87464
attr interpolationmode  none
attr source  sentPacketToUpperLayer
scalar SingleCell.ue[1].nic.mac 	sentPacketToUpperLayer:sum(packetBytes) 	121052438
attr interpolationmode  none
attr source  sentPacketToUpperLayer
scalar SingleCell.ue[1].nic.mac 	receivedPacketFromLowerLayer:count 	115499
attr interpolationmode  none
attr source  receivedPacketFromLowerLayer
scalar SingleCell.ue[1].nic.mac 	receivedPacketFromLowerLayer:sum(packetBytes) 	121296328
attr interpolationmode  none
attr source  receivedPacketFromLowerLayer
scalar SingleCell.ue[1].nic.mac 	receivedPacketFromUpperLayer:count 	1739
attr interpolationmode  none
attr source  receivedPacketFromUpperLayer
scalar SingleCell.ue[1].nic.mac 	receivedPacketFromUpperLayer:sum(packetBytes) 	9218
attr interpolationmode  none
attr source  receivedPacketFromUpperLayer
scalar SingleCell.ue[1].nic.mac 	averageCqiDl:lteAvg 	14.987763133383
attr source  averageCqiDl
attr title  "Average Cqi reported in DL, lteAvg"
attr unit  cqi
scalar SingleCell.ue[1].networkLayer.arp 	failedARPResolution:count 	0
attr title  "ARP failed resolutions, count"
scalar SingleCell.ue[1].networkLayer.arp 	completedARPResolution:count 	0
attr title  "ARP completed resolutions, count"
scalar SingleCell.ue[1].networkLayer.arp 	initiatedARPResolution:count 	0
attr title  "ARP initiated resolutions, count"
scalar SingleCell.ue[1].networkLayer.arp 	sentReply:count 	0
attr title  "ARP replies sent, count"
scalar SingleCell.ue[1].networkLayer.arp 	sentReq:count 	0
attr title  "ARP request sent, count"
run Scenario_6-0-20190320-09:01:07-1508
attr configname Scenario_6
attr datetime 20190320-09:01:07
attr experiment Scenario_6
attr inifile omnetpp.ini
attr iterationvars "$0=8, $1=true"
attr iterationvarsf 8,true-
attr measurement "$0=8, $1=true"
attr network SingleCell
attr processid 1508
attr repetition 0
attr replication #0
attr resultdir results
attr runnumber 0
attr seedset 0
param **.bufferSize 7s
param **.channelControl.carrierFrequency 2100e+6Hz
param **.d2d (true)
param **.fbDelay 1
param **.feedbackComputation "xmldoc(\"config_channel.xml\")"
param **.mac.maxBytesPerTti 1KiB
param **.mac.queueSize 1MiB
param **.mac.schedulingDisciplineDl "\"MAXCI\""
param **.mac.schedulingDisciplineUl "\"MAXCI\""
param **.nic.phy.channelModel "xmldoc(\"config_channel.xml\")"
param **.packetInt (8ms)
param **.routingRecorder.enabled false
param **.server.udpApp[*].typename "\"UDPVideoStreamServer\""
param **.server.udpApp[0].viewID 1
param **.server.udpApp[1].viewID 2
param **.server.udpApp[2].viewID 3
param **.server.udpApp[3].viewID 4
param **.server.udpApp[4].viewID 5
param **.server.udpApp[5].viewID 6
param **.server.udpApp[6].viewID 7
param **.ue[*].macCellId 1
param **.ue[*].masterId 1
param **.ue[*].udpApp[*].typename "\"UDPVideoStreamClient\""
param **.ue[*].udpApp[0].viewID 1
param **.ue[*].udpApp[1].viewID 2
param **.ue[*].udpApp[2].viewID 3
param **.ue[*].udpApp[3].viewID 4
param **.ue[*].udpApp[4].viewID 5
param **.ue[*].udpApp[5].viewID 6
param **.ue[*].udpApp[6].viewID 7
param **.ue[0].udpApp[0].startTime 2s
param **.ue[0].udpApp[1].startTime 16s
param **.ue[0].udpApp[2].startTime 25s
param **.ue[0].udpApp[3].startTime 26s
param **.ue[0].udpApp[4].startTime 90s
param **.ue[0].udpApp[5].startTime 91s
param **.ue[0].udpApp[6].startTime 139s
param **.ue[1].udpApp[0].startTime 12s
param **.ue[1].udpApp[1].startTime 20s
param **.ue[1].udpApp[2].startTime 30s
param **.ue[1].udpApp[3].startTime 31s
param **.ue[1].udpApp[4].startTime 112s
param **.ue[1].udpApp[5].startTime 114s
param **.ue[1].udpApp[6].startTime 130s
param *.numUe 2
param *.server.numUdpApps 3
param *.ue[*].mobility.constraintAreaMaxX 486m
param *.ue[*].mobility.constraintAreaMaxY 226m
param *.ue[*].mobility.constraintAreaMinX 457m
param *.ue[*].mobility.constraintAreaMinY 202m
param *.ue[*].mobility.initFromDisplayString false
param *.ue[*].mobility.initialX uniform(457m,486m)
param *.ue[*].mobility.initialY uniform(202m,226m)
param *.ue[*].mobility.initialZ 0
param *.ue[*].mobility.speed 1mps
param *.ue[*].mobilityType "\"LinearMobility\""
param *.ue[*].numUdpApps 3

scalar SingleCell.server.networkLayer.arp 	failedARPResolution:count 	0
attr title  "ARP failed resolutions, count"
scalar SingleCell.server.networkLayer.arp 	completedARPResolution:count 	0
attr title  "ARP completed resolutions, count"
scalar SingleCell.server.networkLayer.arp 	initiatedARPResolution:count 	0
attr title  "ARP initiated resolutions, count"
scalar SingleCell.server.networkLayer.arp 	sentReply:count 	0
attr title  "ARP replies sent, count"
scalar SingleCell.server.networkLayer.arp 	sentReq:count 	0
attr title  "ARP request sent, count"
scalar SingleCell.server.lo0.lo 	droppedPkBitError:count 	0
attr interpolationmode  none
attr source  dropPkBitError
attr title  "packets dropped/bit error, count"
scalar SingleCell.server.lo0.lo 	droppedPkBitError:sum(packetBytes) 	0
attr interpolationmode  none
attr source  dropPkBitError
attr title  "packets dropped/bit error, sum(packetBytes)"
scalar SingleCell.server.lo0.lo 	rcvdPkFromHL:count 	0
attr interpolationmode  none
attr source  packetReceivedFromUpper
attr title  "packets received from higher layer, count"
scalar SingleCell.server.lo0.lo 	rcvdPkFromHL:sum(packetBytes) 	0
attr interpolationmode  none
attr source  packetReceivedFromUpper
attr title  "packets received from higher layer, sum(packetBytes)"
scalar SingleCell.server.lo0.lo 	passedUpPk:count 	0
attr interpolationmode  none
attr source  packetSentToUpper
attr title  "packets passed to higher layer, count"
scalar SingleCell.server.lo0.lo 	passedUpPk:sum(packetBytes) 	0
attr interpolationmode  none
attr source  packetSentToUpper
attr title  "packets passed to higher layer, sum(packetBytes)"
statistic SingleCell.server.ppp[0].queue 	queueingTime:histogram
field count 235208
field mean 5.527240059859e-07
field stddev 7.6006013910006e-07
field sum 0.13000510799993
field sqrsum 2.0773400875174e-07
field min 0
field max 4.14e-06
attr interpolationmode  none
attr title  "queueing time, histogram"
bin	-INF	0
bin	-0.5	0
bin	-0.46666666666667	0
bin	-0.43333333333333	0
bin	-0.4	0
bin	-0.36666666666667	0
bin	-0.33333333333333	0
bin	-0.3	0
bin	-0.26666666666667	0
bin	-0.23333333333333	0
bin	-0.2	0
bin	-0.16666666666667	0
bin	-0.13333333333333	0
bin	-0.1	0
bin	-0.066666666666667	0
bin	-0.033333333333333	0
bin	0	235208
bin	0.033333333333333	0
bin	0.066666666666667	0
bin	0.1	0
bin	0.13333333333333	0
bin	0.16666666666667	0
bin	0.2	0
bin	0.23333333333333	0
bin	0.26666666666667	0
bin	0.3	0
bin	0.33333333333333	0
bin	0.36666666666667	0
bin	0.4	0
bin	0.43333333333333	0
bin	0.46666666666667	0
bin	0.5	0
scalar SingleCell.server.ppp[0].queue 	dropPk:count 	0
attr interpolationmode  none
attr source  dropPkByQueue
attr title  "dropped packets, count"
scalar SingleCell.server.ppp[0].queue 	dropPk:sum(packetBytes) 	0
attr interpolationmode  none
attr source  dropPkByQueue
attr title  "dropped packets, sum(packetBytes)"
scalar SingleCell.server.ppp[0].queue 	queueLength:max 	5
attr interpolationmode  sample-hold
attr title  "queue length, max"
scalar SingleCell.server.ppp[0].queue 	queueLength:timeavg 	0.00065002553999965
attr interpolationmode  sample-hold
attr title  "queue length, timeavg"
scalar SingleCell.server.ppp[0].queue 	rcvdPk:count 	235208
attr interpolationmode  none
attr title  "received packets, count"
scalar SingleCell.server.ppp[0].queue 	rcvdPk:sum(packetBytes) 	241793824
attr interpolationmode  none
attr title  "received packets, sum(packetBytes)"
scalar SingleCell.server.ppp[0].ppp 	txState:timeavg 	0.00097376112000171
attr interpolationmode  sample-hold
attr title  "tx state, timeavg"
scalar SingleCell.server.ppp[0].ppp 	droppedPkIfaceDown:count 	0
attr interpolationmode  none
attr source  dropPkIfaceDown
attr title  "packets dropped/interface down, count"
scalar SingleCell.server.ppp[0].ppp 	droppedPkIfaceDown:sum(packetBytes) 	0
attr interpolationmode  none
attr source  dropPkIfaceDown
attr title  "packets dropped/interface down, sum(packetBytes)"
scalar SingleCell.server.ppp[0].ppp 	droppedPkBitError:count 	0
attr interpolationmode  none
attr source  dropPkBitError
attr title  "packets dropped/bit error, count"
scalar SingleCell.server.ppp[0].ppp 	droppedPkBitError:sum(packetBytes) 	0
attr interpolationmode  none
attr source  dropPkBitError
attr title  "packets dropped/bit error, sum(packetBytes)"
[...]
attr source  receivedPacketFromLowerLayer
scalar SingleCell.ue[0].nic.pdcpRrc 	receivedPacketFromUpperLayer:count 	256
attr interpolationmode  none
attr source  receivedPacketFromUpperLayer
scalar SingleCell.ue[0].nic.pdcpRrc 	receivedPacketFromUpperLayer:sum(packetBytes) 	8960
attr interpolationmode  none
attr source  receivedPacketFromUpperLayer
scalar SingleCell.ue[0].nic.rlc.um 	rlcPduPacketLossDl:lteAvg 	0
attr source  rlcPduPacketLossDl
attr title  "rlc Packet Loss, lteAvg"
attr unit  ""
scalar SingleCell.ue[0].nic.rlc.um 	rlcPduPacketLossUl:lteAvg 	0
attr source  rlcPduPacketLossUl
attr title  "rlc Packet Loss, lteAvg"
attr unit  ""
scalar SingleCell.ue[0].nic.rlc.um 	rlcPacketLossTotal:lteAvg 	0.48344357311936
attr source  rlcPacketLossTotal
attr title  "rlc Packet Loss, lteAvg"
attr unit  ""
scalar SingleCell.ue[0].nic.rlc.um 	rlcPacketLossDl:lteAvg 	0.48369690928035
attr source  rlcPacketLossDl
attr title  "rlc Packet Loss, lteAvg"
attr unit  ""
scalar SingleCell.ue[0].nic.rlc.um 	rlcPacketLossUl:lteAvg 	0
attr source  rlcPacketLossUl
attr title  "rlc Packet Loss, lteAvg"
attr unit  ""
scalar SingleCell.ue[0].nic.rlc.um 	rlcPduThroughputUl:lteRate 	49.709079154713
attr source  rlcPduThroughputUl
attr title  "Throughput at the rlc layer UL, lteRate"
attr unit  Bps
scalar SingleCell.ue[0].nic.rlc.um 	rlcPduDelayUl:lteAvg 	0.0040255591054313
attr source  rlcPduDelayUl
attr title  "Delay at the rlc layer UL, lteAvg"
attr unit  s
scalar SingleCell.ue[0].nic.rlc.um 	rlcPduThroughputDl:lteRate 	1312349.63834
attr source  rlcPduThroughputDl
attr title  "Throughput at the rlc layer DL, lteRate"
attr unit  Bps
scalar SingleCell.ue[0].nic.rlc.um 	rlcPduDelayDl:lteAvg 	0.0040749778695863
attr source  rlcPduDelayDl
attr title  "Delay at the rlc layer UL, lteAvg"
attr unit  s
scalar SingleCell.ue[0].nic.rlc.um 	rlcThroughputUl:lteRate 	46.54992145711
attr source  rlcThroughputUl
attr title  "Throughput at the rlc layer UL, lteRate"
attr unit  Bps
scalar SingleCell.ue[0].nic.rlc.um 	rlcDelayUl:lteAvg 	0.0069453125
attr source  rlcDelayUl
attr title  "Delay at the rlc layer UL, lteAvg"
attr unit  s
scalar SingleCell.ue[0].nic.rlc.um 	rlcThroughputDl:lteRate 	1310980.1794157
attr source  rlcThroughputDl
attr title  "Throughput at the rlc layer DL, lteRate"
attr unit  Bps
scalar SingleCell.ue[0].nic.rlc.um 	rlcDelayDl:lteAvg 	0.0052057623173607
attr source  rlcDelayDl
attr title  "Delay at the rlc layer UL, lteAvg"
attr unit  s
scalar SingleCell.ue[0].nic.mac 	measuredItbs:mean 	-nan
attr source  measuredItbs
attr title  "TBS index, mean"
attr unit  ""
scalar SingleCell.ue[0].nic.mac 	harqErrorRate_4th_D2D:mean 	-nan
attr source  harqErrorRate_4th_D2D
attr title  "Harq Error Rate D2D, mean"
attr unit  ""
scalar SingleCell.ue[0].nic.mac 	harqErrorRate_4th_Dl:mean 	0
attr source  harqErrorRate_4th_Dl
attr title  "Harq Error Rate Dl, mean"
attr unit  ""
scalar SingleCell.ue[0].nic.mac 	harqErrorRate_4th_Ul:mean 	-nan
attr source  harqErrorRate_4th_Ul
attr title  "Harq Error Rate Dl, mean"
attr unit  ""
scalar SingleCell.ue[0].nic.mac 	harqErrorRate_3rd_D2D:mean 	-nan
attr source  harqErrorRate_3rd_D2D
attr title  "Harq Error Rate D2D, mean"
attr unit  ""
scalar SingleCell.ue[0].nic.mac 	harqErrorRate_3rd_Dl:mean 	0.063157894736842
attr source  harqErrorRate_3rd_Dl
attr title  "Harq Error Rate Dl, mean"
attr unit  ""
scalar SingleCell.ue[0].nic.mac 	harqErrorRate_3rd_Ul:mean 	-nan
attr source  harqErrorRate_3rd_Ul
attr title  "Harq Error Rate Dl, mean"
attr unit  ""
scalar SingleCell.ue[0].nic.mac 	harqErrorRate_2nd_D2D:mean 	-nan
attr source  harqErrorRate_2nd_D2D
attr title  "Harq Error Rate D2D, mean"
attr unit  ""
scalar SingleCell.ue[0].nic.mac 	harqErrorRate_2nd_Dl:mean 	0.059635907093534
attr source  harqErrorRate_2nd_Dl
attr title  "Harq Error Rate Dl, mean"
attr unit  ""
scalar SingleCell.ue[0].nic.mac 	harqErrorRate_2nd_Ul:mean 	0
attr source  harqErrorRate_2nd_Ul
attr title  "Harq Error Rate Dl, mean"
attr unit  ""
scalar SingleCell.ue[0].nic.mac 	harqErrorRate_1st_D2D:mean 	-nan
attr source  harqErrorRate_1st_D2D
attr title  "Harq Error Rate D2D, mean"
attr unit  ""
scalar SingleCell.ue[0].nic.mac 	harqErrorRate_1st_Dl:mean 	0.01175134074462
attr source  harqErrorRate_1st_Dl
attr title  "Harq Error Rate Dl, mean"
attr unit  ""
scalar SingleCell.ue[0].nic.mac 	harqErrorRate_1st_Ul:mean 	0.0031446540880503
attr source  harqErrorRate_1st_Ul
attr title  "Harq Error Rate Dl, mean"
attr unit  ""
scalar SingleCell.ue[0].nic.mac 	harqErrorRateD2D:mean 	-nan
attr source  harqErrorRateD2D
attr title  "Harq Error Rate D2D, mean"
attr unit  ""
scalar SingleCell.ue[0].nic.mac 	harqErrorRateDl:mean 	0.012342171027227
attr source  harqErrorRateDl
attr title  "Harq Error Rate Dl, mean"
attr unit  ""
scalar SingleCell.ue[0].nic.mac 	harqErrorRateUl:mean 	0.0031347962382445
attr source  harqErrorRateUl
attr title  "Harq Error Rate Dl, mean"
attr unit  ""
scalar SingleCell.ue[0].nic.mac 	macPacketLossD2D:mean 	-nan
attr source  macPacketLossD2D
attr title  "Mac Packet Loss D2D, mean"
attr unit  ""
scalar SingleCell.ue[0].nic.mac 	macPacketLossDl:mean 	0
attr source  macPacketLossDl
attr title  "Mac Packet Loss, mean"
attr unit  ""
scalar SingleCell.ue[0].nic.mac 	macPacketLossUl:mean 	0
attr source  macPacketLossUl
attr title  "Mac Packet Loss, mean"
attr unit  ""
scalar SingleCell.ue[0].nic.mac 	macCellPacketLossD2D:mean 	-nan
attr source  macCellPacketLossD2D
attr title  "Mac Cell Packet Loss D2D, mean"
attr unit  ""
scalar SingleCell.ue[0].nic.mac 	macCellPacketLossUl:mean 	-nan
attr source  macCellPacketLossUl
attr title  "Mac Cell Packet Loss, mean"
attr unit  ""
scalar SingleCell.ue[0].nic.mac 	macCellPacketLossDl:mean 	-nan
attr source  macCellPacketLossDl
attr title  "Mac Cell Packet Loss, mean"
attr unit  ""
scalar SingleCell.ue[0].nic.mac 	macThroughputDl:lteRate 	1313719.0972643
attr source  macThroughputDl
attr title  "Throughput at the MAC layer DL, lteRate"
attr unit  Bps
scalar SingleCell.ue[0].nic.mac 	macDelayDl:lteAvg 	0.0040749778695863
attr source  macDelayDl
attr title  "Delay at the MAC layer UL, lteAvg"
attr unit  s
scalar SingleCell.ue[0].nic.mac 	sentPacketToLowerLayer:count 	137683
attr interpolationmode  none
attr source  sentPacketToLowerLayer
scalar SingleCell.ue[0].nic.mac 	sentPacketToLowerLayer:sum(packetBytes) 	10518
attr interpolationmode  none
attr source  sentPacketToLowerLayer
scalar SingleCell.ue[0].nic.mac 	sentPacketToUpperLayer:count 	135882
attr interpolationmode  none
attr source  sentPacketToUpperLayer
scalar SingleCell.ue[0].nic.mac 	sentPacketToUpperLayer:sum(packetBytes) 	259813732
attr interpolationmode  none
attr source  sentPacketToUpperLayer
scalar SingleCell.ue[0].nic.mac 	receivedPacketFromLowerLayer:count 	290871
attr interpolationmode  none
attr source  receivedPacketFromLowerLayer
scalar SingleCell.ue[0].nic.mac 	receivedPacketFromLowerLayer:sum(packetBytes) 	264873713
attr interpolationmode  none
attr source  receivedPacketFromLowerLayer
scalar SingleCell.ue[0].nic.mac 	receivedPacketFromUpperLayer:count 	578
attr interpolationmode  none
attr source  receivedPacketFromUpperLayer
scalar SingleCell.ue[0].nic.mac 	receivedPacketFromUpperLayer:sum(packetBytes) 	19058
attr interpolationmode  none
attr source  receivedPacketFromUpperLayer
scalar SingleCell.ue[0].nic.mac 	averageCqiDl:lteAvg 	14.832284198869
attr source  averageCqiDl
attr title  "Average Cqi reported in DL, lteAvg"
attr unit  cqi
scalar SingleCell.ue[0].networkLayer.arp 	failedARPResolution:count 	0
attr title  "ARP failed resolutions, count"
scalar SingleCell.ue[0].networkLayer.arp 	completedARPResolution:count 	0
attr title  "ARP completed resolutions, count"
scalar SingleCell.ue[0].networkLayer.arp 	initiatedARPResolution:count 	0
attr title  "ARP initiated resolutions, count"
scalar SingleCell.ue[0].networkLayer.arp 	sentReply:count 	0
attr title  "ARP replies sent, count"
scalar SingleCell.ue[0].networkLayer.arp 	sentReq:count 	0
attr title  "ARP request sent, count"
statistic SingleCell.ue[1].udpApp[0] 	endToEndDelay:stats
field count 46
field mean 4.0340652173913
field stddev 0.093240287471287
field sum 185.567
field sqrsum 748.980599
field min 4.006
field max 4.541
attr interpolationmode  none
attr source  segmentCompletionTime
attr title  "end-to-end delay, stats"
statistic SingleCell.ue[1].udpApp[1] 	endToEndDelay:stats
field count 44
field mean 4.0310681818182
field stddev 0.06798371820371
field sum 177.367
field sqrsum 715.177207
field min 4.006
field max 4.35
attr interpolationmode  none
attr source  segmentCompletionTime
attr title  "end-to-end delay, stats"
statistic SingleCell.ue[1].udpApp[2] 	endToEndDelay:stats
field count 42
field mean 4.0235
field stddev 0.053600714410953
field sum 168.987
field sqrsum 680.036989
field min 4.006
field max 4.345
attr interpolationmode  none
attr source  segmentCompletionTime
attr title  "end-to-end delay, stats"
statistic SingleCell.ue[1].udpApp[3] 	endToEndDelay:stats
field count 42
field mean 4.0137619047619
field stddev 0.0089219092448623
field sum 168.578
field sqrsum 676.635218
field min 4.006
field max 4.045
attr interpolationmode  none
attr source  segmentCompletionTime
attr title  "end-to-end delay, stats"
statistic SingleCell.ue[1].udpApp[4] 	endToEndDelay:stats
field count 21
field mean 4.0279047619048
field stddev 0.048587966372258
field sum 84.586
field sqrsum 340.751568
field min 4.005
field max 4.22
attr interpolationmode  none
attr source  segmentCompletionTime
attr title  "end-to-end delay, stats"
statistic SingleCell.ue[1].udpApp[5] 	endToEndDelay:stats
field count 21
field mean 4.0181904761905
field stddev 0.020522229527154
field sum 84.382
field sqrsum 339.071372
field min 4.005
field max 4.1
attr interpolationmode  none
attr source  segmentCompletionTime
attr title  "end-to-end delay, stats"
statistic SingleCell.ue[1].udpApp[6] 	endToEndDelay:stats
field count 17
field mean 4.0165882352941
field stddev 0.012445173881515
field sum 68.282
field sqrsum 274.263156
field min 4.006
field max 4.05
attr interpolationmode  none
attr source  segmentCompletionTime
attr title  "end-to-end delay, stats"
scalar SingleCell.ue[1].udp 	droppedPkBadChecksum:count 	0
attr interpolationmode  none
attr title  "packets dropped (checksum error), count"
scalar SingleCell.ue[1].udp 	droppedPkWrongPort:count 	0
attr interpolationmode  none
attr title  "packets dropped (wrong port), count"
scalar SingleCell.ue[1].udp 	passedUpPk:count 	236300
attr interpolationmode  none
attr title  "packets passed up, count"
scalar SingleCell.ue[1].udp 	rcvdPk:count 	236300
attr interpolationmode  none
attr source  rcvdPk
attr title  "packets received, count"
scalar SingleCell.ue[1].udp 	rcvdPk:sum(packetBytes) 	238190400
attr interpolationmode  none
attr source  rcvdPk
attr title  "packets received, sum(packetBytes)"
scalar SingleCell.ue[1].udp 	sentPk:count 	240
attr interpolationmode  none
attr source  sentPk
attr title  "packets sent, count"
scalar SingleCell.ue[1].udp 	sentPk:sum(packetBytes) 	3600
attr interpolationmode  none
attr source  sentPk
attr title  "packets sent, sum(packetBytes)"
scalar SingleCell.ue[1].nic.pdcpRrc 	sentPacketToLowerLayer:count 	240
attr interpolationmode  none
attr source  sentPacketToLowerLayer
scalar SingleCell.ue[1].nic.pdcpRrc 	sentPacketToLowerLayer:sum(packetBytes) 	8640
attr interpolationmode  none
attr source  sentPacketToLowerLayer
scalar SingleCell.ue[1].nic.pdcpRrc 	sentPacketToUpperLayer:count 	236300
attr interpolationmode  none
attr source  sentPacketToUpperLayer
scalar SingleCell.ue[1].nic.pdcpRrc 	sentPacketToUpperLayer:sum(packetBytes) 	242916400
attr interpolationmode  none
attr source  sentPacketToUpperLayer
scalar SingleCell.ue[1].nic.pdcpRrc 	receivedPacketFromLowerLayer:count 	236300
attr interpolationmode  none
attr source  receivedPacketFromLowerLayer
scalar SingleCell.ue[1].nic.pdcpRrc 	receivedPacketFromLowerLayer:sum(packetBytes) 	243152700
attr interpolationmode  none
attr source  receivedPacketFromLowerLayer
scalar SingleCell.ue[1].nic.pdcpRrc 	receivedPacketFromUpperLayer:count 	240
attr interpolationmode  none
attr source  receivedPacketFromUpperLayer
scalar SingleCell.ue[1].nic.pdcpRrc 	receivedPacketFromUpperLayer:sum(packetBytes) 	8400
attr interpolationmode  none
attr source  receivedPacketFromUpperLayer
scalar SingleCell.ue[1].nic.rlc.um 	rlcPduPacketLossDl:lteAvg 	0
attr source  rlcPduPacketLossDl
attr title  "rlc Packet Loss, lteAvg"
attr unit  ""
scalar SingleCell.ue[1].nic.rlc.um 	rlcPduPacketLossUl:lteAvg 	0
attr source  rlcPduPacketLossUl
attr title  "rlc Packet Loss, lteAvg"
attr unit  ""
scalar SingleCell.ue[1].nic.rlc.um 	rlcPacketLossTotal:lteAvg 	0.5160475236667
attr source  rlcPacketLossTotal
attr title  "rlc Packet Loss, lteAvg"
attr unit  ""
scalar SingleCell.ue[1].nic.rlc.um 	rlcPacketLossDl:lteAvg 	0.51630104374988
attr source  rlcPacketLossDl
attr title  "rlc Packet Loss, lteAvg"
attr unit  ""
scalar SingleCell.ue[1].nic.rlc.um 	rlcPacketLossUl:lteAvg 	0
attr source  rlcPacketLossUl
attr title  "rlc Packet Loss, lteAvg"
attr unit  ""
scalar SingleCell.ue[1].nic.rlc.um 	rlcPduThroughputUl:lteRate 	50.438316524107
attr source  rlcPduThroughputUl
attr title  "Throughput at the rlc layer UL, lteRate"
attr unit  Bps
scalar SingleCell.ue[1].nic.rlc.um 	rlcPduDelayUl:lteAvg 	0.0040570071258907
attr source  rlcPduDelayUl
attr title  "Delay at the rlc layer UL, lteAvg"
attr unit  s
scalar SingleCell.ue[1].nic.rlc.um 	rlcPduThroughputDl:lteRate 	1294832.6107656
attr source  rlcPduThroughputDl
attr title  "Throughput at the rlc layer DL, lteRate"
attr unit  Bps
scalar SingleCell.ue[1].nic.rlc.um 	rlcPduDelayDl:lteAvg 	0.0040031506034874
attr source  rlcPduDelayDl
attr title  "Delay at the rlc layer UL, lteAvg"
attr unit  s
scalar SingleCell.ue[1].nic.rlc.um 	rlcThroughputUl:lteRate 	45.959402527767
attr source  rlcThroughputUl
attr title  "Throughput at the rlc layer UL, lteRate"
attr unit  Bps
scalar SingleCell.ue[1].nic.rlc.um 	rlcDelayUl:lteAvg 	0.023129166666667
attr source  rlcDelayUl
attr title  "Delay at the rlc layer UL, lteAvg"
attr unit  s
scalar SingleCell.ue[1].nic.rlc.um 	rlcThroughputDl:lteRate 	1293454.8665599
attr source  rlcThroughputDl
attr title  "Throughput at the rlc layer DL, lteRate"
attr unit  Bps
scalar SingleCell.ue[1].nic.rlc.um 	rlcDelayDl:lteAvg 	0.0050113850045864
attr source  rlcDelayDl
attr title  "Delay at the rlc layer UL, lteAvg"
attr unit  s
scalar SingleCell.ue[1].nic.mac 	measuredItbs:mean 	-nan
attr source  measuredItbs
attr title  "TBS index, mean"
attr unit  ""
scalar SingleCell.ue[1].nic.mac 	harqErrorRate_4th_D2D:mean 	-nan
attr source  harqErrorRate_4th_D2D
attr title  "Harq Error Rate D2D, mean"
attr unit  ""
scalar SingleCell.ue[1].nic.mac 	harqErrorRate_4th_Dl:mean 	-nan
attr source  harqErrorRate_4th_Dl
attr title  "Harq Error Rate Dl, mean"
attr unit  ""
scalar SingleCell.ue[1].nic.mac 	harqErrorRate_4th_Ul:mean 	-nan
attr source  harqErrorRate_4th_Ul
attr title  "Harq Error Rate Dl, mean"
attr unit  ""
scalar SingleCell.ue[1].nic.mac 	harqErrorRate_3rd_D2D:mean 	-nan
attr source  harqErrorRate_3rd_D2D
attr title  "Harq Error Rate D2D, mean"
attr unit  ""
scalar SingleCell.ue[1].nic.mac 	harqErrorRate_3rd_Dl:mean 	-nan
attr source  harqErrorRate_3rd_Dl
attr title  "Harq Error Rate Dl, mean"
attr unit  ""
scalar SingleCell.ue[1].nic.mac 	harqErrorRate_3rd_Ul:mean 	-nan
attr source  harqErrorRate_3rd_Ul
attr title  "Harq Error Rate Dl, mean"
attr unit  ""
scalar SingleCell.ue[1].nic.mac 	harqErrorRate_2nd_D2D:mean 	-nan
attr source  harqErrorRate_2nd_D2D
attr title  "Harq Error Rate D2D, mean"
attr unit  ""
scalar SingleCell.ue[1].nic.mac 	harqErrorRate_2nd_Dl:mean 	0
attr source  harqErrorRate_2nd_Dl
attr title  "Harq Error Rate Dl, mean"
attr unit  ""
scalar SingleCell.ue[1].nic.mac 	harqErrorRate_2nd_Ul:mean 	0
attr source  harqErrorRate_2nd_Ul
attr title  "Harq Error Rate Dl, mean"
attr unit  ""
scalar SingleCell.ue[1].nic.mac 	harqErrorRate_1st_D2D:mean 	-nan
attr source  harqErrorRate_1st_D2D
attr title  "Harq Error Rate D2D, mean"
attr unit  ""
scalar SingleCell.ue[1].nic.mac 	harqErrorRate_1st_Dl:mean 	0.00052510463482061
attr source  harqErrorRate_1st_Dl
attr title  "Harq Error Rate Dl, mean"
attr unit  ""
scalar SingleCell.ue[1].nic.mac 	harqErrorRate_1st_Ul:mean 	0.0046029919447641
attr source  harqErrorRate_1st_Ul
attr title  "Harq Error Rate Dl, mean"
attr unit  ""
scalar SingleCell.ue[1].nic.mac 	harqErrorRateD2D:mean 	-nan
attr source  harqErrorRateD2D
attr title  "Harq Error Rate D2D, mean"
attr unit  ""
scalar SingleCell.ue[1].nic.mac 	harqErrorRateDl:mean 	0.00052482904465678
attr source  harqErrorRateDl
attr title  "Harq Error Rate Dl, mean"
attr unit  ""
scalar SingleCell.ue[1].nic.mac 	harqErrorRateUl:mean 	0.004581901489118
attr source  harqErrorRateUl
attr title  "Harq Error Rate Dl, mean"
attr unit  ""
scalar SingleCell.ue[1].nic.mac 	macPacketLossD2D:mean 	-nan
attr source  macPacketLossD2D
attr title  "Mac Packet Loss D2D, mean"
attr unit  ""
scalar SingleCell.ue[1].nic.mac 	macPacketLossDl:mean 	0
attr source  macPacketLossDl
attr title  "Mac Packet Loss, mean"
attr unit  ""
scalar SingleCell.ue[1].nic.mac 	macPacketLossUl:mean 	0
attr source  macPacketLossUl
attr title  "Mac Packet Loss, mean"
attr unit  ""
scalar SingleCell.ue[1].nic.mac 	macCellPacketLossD2D:mean 	-nan
attr source  macCellPacketLossD2D
attr title  "Mac Cell Packet Loss D2D, mean"
attr unit  ""
scalar SingleCell.ue[1].nic.mac 	macCellPacketLossUl:mean 	-nan
attr source  macCellPacketLossUl
attr title  "Mac Cell Packet Loss, mean"
attr unit  ""
scalar SingleCell.ue[1].nic.mac 	macCellPacketLossDl:mean 	-nan
attr source  macCellPacketLossDl
attr title  "Mac Cell Packet Loss, mean"
attr unit  ""
scalar SingleCell.ue[1].nic.mac 	macThroughputDl:lteRate 	1296210.3549714
attr source  macThroughputDl
attr title  "Throughput at the MAC layer DL, lteRate"
attr unit  Bps
scalar SingleCell.ue[1].nic.mac 	macDelayDl:lteAvg 	0.0040031506034874
attr source  macDelayDl
attr title  "Delay at the MAC layer UL, lteAvg"
attr unit  s
scalar SingleCell.ue[1].nic.mac 	sentPacketToLowerLayer:count 	131250
attr interpolationmode  none
attr source  sentPacketToLowerLayer
scalar SingleCell.ue[1].nic.mac 	sentPacketToLowerLayer:sum(packetBytes) 	11342
attr interpolationmode  none
attr source  sentPacketToLowerLayer
scalar SingleCell.ue[1].nic.mac 	sentPacketToUpperLayer:count 	130368
attr interpolationmode  none
attr source  sentPacketToUpperLayer
scalar SingleCell.ue[1].nic.mac 	sentPacketToUpperLayer:sum(packetBytes) 	243411698
attr interpolationmode  none
attr source  sentPacketToUpperLayer
scalar SingleCell.ue[1].nic.mac 	receivedPacketFromLowerLayer:count 	176954
attr interpolationmode  none
attr source  receivedPacketFromLowerLayer
scalar SingleCell.ue[1].nic.mac 	receivedPacketFromLowerLayer:sum(packetBytes) 	243815984
attr interpolationmode  none
attr source  receivedPacketFromLowerLayer
scalar SingleCell.ue[1].nic.mac 	receivedPacketFromUpperLayer:count 	1109
attr interpolationmode  none
attr source  receivedPacketFromUpperLayer
scalar SingleCell.ue[1].nic.mac 	receivedPacketFromUpperLayer:sum(packetBytes) 	18122
attr interpolationmode  none
attr source  receivedPacketFromUpperLayer
scalar SingleCell.ue[1].nic.mac 	averageCqiDl:lteAvg 	14.995407816745
attr source  averageCqiDl
attr title  "Average Cqi reported in DL, lteAvg"
attr unit  cqi
scalar SingleCell.ue[1].networkLayer.arp 	failedARPResolution:count 	0
attr title  "ARP failed resolutions, count"
scalar SingleCell.ue[1].networkLayer.arp 	completedARPResolution:count 	0
attr title  "ARP completed resolutions, count"
scalar SingleCell.ue[1].networkLayer.arp 	initiatedARPResolution:count 	0
attr title  "ARP initiated resolutions, count"
scalar SingleCell.ue[1].networkLayer.arp 	sentReply:count 	0
attr title  "ARP replies sent, count"
scalar SingleCell.ue[1].networkLayer.arp 	sentReq:count 	0
attr title  "ARP request sent, count"
