version 2
run Scenario_3-0-20190319-21:53:04-8358
attr configname Scenario_3
attr datetime 20190319-21:53:04
attr experiment Scenario_3
attr inifile omnetpp.ini
attr iterationvars "$0=8, $1=true"
attr iterationvarsf 8,true-
attr measurement "$0=8, $1=true"
attr network SingleCell
attr processid 8358
attr repetition 0
attr replication #0
attr resultdir results
attr runnumber 0
attr seedset 0
param **.bufferSize 7s
param **.channelControl.carrierFrequency 2100e+6Hz
param **.d2d (true)
param **.fbDelay 1
param **.feedbackComputation "xmldoc(\"config_channel.xml\")"
param **.mac.maxBytesPerTti 1KiB
param **.mac.queueSize 1MiB
param **.mac.schedulingDisciplineDl "\"MAXCI\""
param **.mac.schedulingDisciplineUl "\"MAXCI\""
param **.nic.phy.channelModel "xmldoc(\"config_channel.xml\")"
param **.packetInt (8ms)
param **.routingRecorder.enabled false
param **.server.udpApp[*].typename "\"UDPVideoStreamServer\""
param **.server.udpApp[0].viewID 1
param **.server.udpApp[1].viewID 2
param **.ue[*].macCellId 1
param **.ue[*].masterId 1
param **.ue[*].udpApp[*].typename "\"UDPVideoStreamClient\""
param **.ue[*].udpApp[0].viewID 1
param **.ue[*].udpApp[1].viewID 2
param **.ue[0].udpApp[0].startTime 2s
param **.ue[0].udpApp[1].startTime 3s
param **.ue[1].udpApp[0].startTime 12s
param **.ue[1].udpApp[1].startTime 13s
param **.ue[2].udpApp[0].startTime 70s
param **.ue[2].udpApp[1].startTime 71s
param **.ue[3].udpApp[0].startTime 80s
param **.ue[3].udpApp[1].startTime 81s
param **.ue[4].udpApp[0].startTime 120s
param **.ue[4].udpApp[1].startTime 121s
param **.ue[5].udpApp[0].startTime 125s
param **.ue[5].udpApp[1].startTime 126s
param **.ue[6].udpApp[0].startTime 127s
param **.ue[6].udpApp[1].startTime 128s
param **.ue[7].udpApp[0].startTime 135s
param **.ue[7].udpApp[1].startTime 136s
param **.ue[8].udpApp[0].startTime 150s
param **.ue[8].udpApp[1].startTime 151s
param **.ue[9].udpApp[0].startTime 155s
param **.ue[9].udpApp[1].startTime 156s
param *.numUe 3
param *.server.numUdpApps 2
param *.ue[*].mobility.constraintAreaMaxX 486m
param *.ue[*].mobility.constraintAreaMaxY 226m
param *.ue[*].mobility.constraintAreaMinX 457m
param *.ue[*].mobility.constraintAreaMinY 202m
param *.ue[*].mobility.initFromDisplayString false
param *.ue[*].mobility.initialX uniform(457m,486m)
param *.ue[*].mobility.initialY uniform(202m,226m)
param *.ue[*].mobility.initialZ 0
param *.ue[*].mobility.speed 1mps
param *.ue[*].mobilityType "\"LinearMobility\""
param *.ue[*].numUdpApps 2

scalar SingleCell.server.networkLayer.arp 	failedARPResolution:count 	0
attr title  "ARP failed resolutions, count"
scalar SingleCell.server.networkLayer.arp 	completedARPResolution:count 	0
attr title  "ARP completed resolutions, count"
scalar SingleCell.server.networkLayer.arp 	initiatedARPResolution:count 	0
attr title  "ARP initiated resolutions, count"
scalar SingleCell.server.networkLayer.arp 	sentReply:count 	0
attr title  "ARP replies sent, count"
scalar SingleCell.server.networkLayer.arp 	sentReq:count 	0
attr title  "ARP request sent, count"
scalar SingleCell.server.lo0.lo 	droppedPkBitError:count 	0
attr interpolationmode  none
attr source  dropPkBitError
attr title  "packets dropped/bit error, count"
scalar SingleCell.server.lo0.lo 	droppedPkBitError:sum(packetBytes) 	0
attr interpolationmode  none
attr source  dropPkBitError
attr title  "packets dropped/bit error, sum(packetBytes)"
scalar SingleCell.server.lo0.lo 	rcvdPkFromHL:count 	0
attr interpolationmode  none
attr source  packetReceivedFromUpper
attr title  "packets received from higher layer, count"
scalar SingleCell.server.lo0.lo 	rcvdPkFromHL:sum(packetBytes) 	0
attr interpolationmode  none
attr source  packetReceivedFromUpper
attr title  "packets received from higher layer, sum(packetBytes)"
scalar SingleCell.server.lo0.lo 	passedUpPk:count 	0
attr interpolationmode  none
attr source  packetSentToUpper
attr title  "packets passed to higher layer, count"
scalar SingleCell.server.lo0.lo 	passedUpPk:sum(packetBytes) 	0
attr interpolationmode  none
attr source  packetSentToUpper
attr title  "packets passed to higher layer, sum(packetBytes)"
statistic SingleCell.server.ppp[0].queue 	queueingTime:histogram
field count 159331
field mean 5.2537889048572e-07
field stddev 7.9696467841206e-07
field sum 0.08370914399998
field sqrsum 1.4517789667196e-07
field min 0
field max 4.14e-06
attr interpolationmode  none
attr title  "queueing time, histogram"
bin	-INF	0
bin	-0.5	0
bin	-0.46666666666667	0
bin	-0.43333333333333	0
bin	-0.4	0
bin	-0.36666666666667	0
bin	-0.33333333333333	0
bin	-0.3	0
bin	-0.26666666666667	0
bin	-0.23333333333333	0
bin	-0.2	0
bin	-0.16666666666667	0
bin	-0.13333333333333	0
bin	-0.1	0
bin	-0.066666666666667	0
bin	-0.033333333333333	0
bin	0	159331
bin	0.033333333333333	0
bin	0.066666666666667	0
bin	0.1	0
bin	0.13333333333333	0
bin	0.16666666666667	0
bin	0.2	0
bin	0.23333333333333	0
bin	0.26666666666667	0
bin	0.3	0
bin	0.33333333333333	0
bin	0.36666666666667	0
bin	0.4	0
bin	0.43333333333333	0
bin	0.46666666666667	0
bin	0.5	0
scalar SingleCell.server.ppp[0].queue 	dropPk:count 	0
attr interpolationmode  none
attr source  dropPkByQueue
attr title  "dropped packets, count"
scalar SingleCell.server.ppp[0].queue 	dropPk:sum(packetBytes) 	0
attr interpolationmode  none
attr source  dropPkByQueue
attr title  "dropped packets, sum(packetBytes)"
scalar SingleCell.server.ppp[0].queue 	queueLength:max 	5
attr interpolationmode  sample-hold
attr title  "queue length, max"
scalar SingleCell.server.ppp[0].queue 	queueLength:timeavg 	0.0004185457199999
attr interpolationmode  sample-hold
attr title  "queue length, timeavg"
scalar SingleCell.server.ppp[0].queue 	rcvdPk:count 	159331
attr interpolationmode  none
attr title  "received packets, count"
scalar SingleCell.server.ppp[0].queue 	rcvdPk:sum(packetBytes) 	163792268
attr interpolationmode  none
attr title  "received packets, sum(packetBytes)"
scalar SingleCell.server.ppp[0].ppp 	txState:timeavg 	0.00065963033999858
attr interpolationmode  sample-hold
attr title  "tx state, timeavg"
scalar SingleCell.server.ppp[0].ppp 	droppedPkIfaceDown:count 	0
attr interpolationmode  none
attr source  dropPkIfaceDown
attr title  "packets dropped/interface down, count"
scalar SingleCell.server.ppp[0].ppp 	droppedPkIfaceDown:sum(packetBytes) 	0
attr interpolationmode  none
attr source  dropPkIfaceDown
attr title  "packets dropped/interface down, sum(packetBytes)"
scalar SingleCell.server.ppp[0].ppp 	droppedPkBitError:count 	0
attr interpolationmode  none
attr source  dropPkBitError
attr title  "packets dropped/bit error, count"
scalar SingleCell.server.ppp[0].ppp 	droppedPkBitError:sum(packetBytes) 	0
attr interpolationmode  none
attr source  dropPkBitError
attr title  "packets dropped/bit error, sum(packetBytes)"
scalar SingleCell.server.ppp[0].ppp 	rxPkOk:count 	164
attr interpolationmode  none
attr source  rxPkOk
attr title  "packets received OK, count"
scalar SingleCell.server.ppp[0].ppp 	rxPkOk:sum(packetBytes) 	6888
attr interpolationmode  none
attr source  rxPkOk
attr title  "packets received OK, sum(packetBytes)"
scalar SingleCell.server.ppp[0].ppp 	txPk:count 	159331
attr interpolationmode  none
attr source  packetSentToLower
attr title  "packets transmitted, count"
scalar SingleCell.server.ppp[0].ppp 	txPk:sum(packetBytes) 	164907585
attr interpolationmode  none
attr source  packetSentToLower
attr title  "packets transmitted, sum(packetBytes)"
scalar SingleCell.server.ppp[0].ppp 	rcvdPkFromHL:count 	159331
attr interpolationmode  none
attr source  packetReceivedFromUpper
attr title  "packets received from higher layer, count"
scalar SingleCell.server.ppp[0].ppp 	rcvdPkFromHL:sum(packetBytes) 	163792268
attr interpolationmode  none
attr source  packetReceivedFromUpper
attr title  "packets received from higher layer, sum(packetBytes)"
scalar SingleCell.server.ppp[0].ppp 	passedUpPk:count 	164
attr interpolationmode  none
attr source  packetSentToUpper
attr title  "packets passed to higher layer, count"
scalar SingleCell.server.ppp[0].ppp 	passedUpPk:sum(packetBytes) 	5740
attr interpolationmode  none
attr source  packetSentToUpper
attr title  "packets passed to higher layer, sum(packetBytes)"
scalar SingleCell.server.udpApp[0] 	reqStreamBytes:count 	82
attr interpolationmode  none
attr title  "requested stream bytes, count"
scalar SingleCell.server.udpApp[0] 	reqStreamBytes:sum 	82000000
attr interpolationmode  none
attr title  "requested stream bytes, sum"
scalar SingleCell.server.udpApp[0] 	sentPk:count 	78957
attr interpolationmode  none
attr source  sentPk
attr title  "packets sent, count"
scalar SingleCell.server.udpApp[0] 	sentPk:sum(packetBytes) 	78957000
attr interpolationmode  none
attr source  sentPk
attr title  "packets sent, sum(packetBytes)"
scalar SingleCell.server.udpApp[1] 	reqStreamBytes:count 	82
attr interpolationmode  none
attr title  "requested stream bytes, count"
scalar SingleCell.server.udpApp[1] 	reqStreamBytes:sum 	82000000
attr interpolationmode  none
attr title  "requested stream bytes, sum"
scalar SingleCell.server.udpApp[1] 	sentPk:count 	80374
attr interpolationmode  none
attr source  sentPk
attr title  "packets sent, count"
scalar SingleCell.server.udpApp[1] 	sentPk:sum(packetBytes) 	80374000
attr interpolationmode  none
attr source  sentPk
attr title  "packets sent, sum(packetBytes)"
scalar SingleCell.server.udp 	droppedPkBadChecksum:count 	0
attr interpolationmode  none
attr title  "packets dropped (checksum error), count"
scalar SingleCell.server.udp 	droppedPkWrongPort:count 	0
attr interpolationmode  none
attr title  "packets dropped (wrong port), count"
scalar SingleCell.server.udp 	passedUpPk:count 	164
attr interpolationmode  none
attr title  "packets passed up, count"
scalar SingleCell.server.udp 	rcvdPk:count 	164
attr interpolationmode  none
attr source  rcvdPk
attr title  "packets received, count"
scalar SingleCell.server.udp 	rcvdPk:sum(packetBytes) 	2460
attr interpolationmode  none
attr source  rcvdPk
attr title  "packets received, sum(packetBytes)"
scalar SingleCell.server.udp 	sentPk:count 	159331
attr interpolationmode  none
attr source  sentPk
attr title  "packets sent, count"
scalar SingleCell.server.udp 	sentPk:sum(packetBytes) 	160605648
attr interpolationmode  none
attr source  sentPk
attr title  "packets sent, sum(packetBytes)"
scalar SingleCell.router.networkLayer.arp 	failedARPResolution:count 	0
attr title  "ARP failed resolutions, count"
scalar SingleCell.router.networkLayer.arp 	completedARPResolution:count 	0
attr title  "ARP completed resolutions, count"
scalar SingleCell.router.networkLayer.arp 	initiatedARPResolution:count 	0
attr title  "ARP initiated resolutions, count"
scalar SingleCell.router.networkLayer.arp 	sentReply:count 	0
attr title  "ARP replies sent, count"
scalar SingleCell.router.networkLayer.arp 	sentReq:count 	0
attr title  "ARP request sent, count"
scalar SingleCell.router.lo0.lo 	droppedPkBitError:count 	0
attr interpolationmode  none
attr source  dropPkBitError
attr title  "packets dropped/bit error, count"
scalar SingleCell.router.lo0.lo 	droppedPkBitError:sum(packetBytes) 	0
attr interpolationmode  none
attr source  dropPkBitError
attr title  "packets dropped/bit error, sum(packetBytes)"
scalar SingleCell.router.lo0.lo 	rcvdPkFromHL:count 	0
attr interpolationmode  none
attr source  packetReceivedFromUpper
attr title  "packets received from higher layer, count"
scalar SingleCell.router.lo0.lo 	rcvdPkFromHL:sum(packetBytes) 	0
attr interpolationmode  none
attr source  packetReceivedFromUpper
attr title  "packets received from higher layer, sum(packetBytes)"
scalar SingleCell.router.lo0.lo 	passedUpPk:count 	0
attr interpolationmode  none
attr source  packetSentToUpper
attr title  "packets passed to higher layer, count"
scalar SingleCell.router.lo0.lo 	passedUpPk:sum(packetBytes) 	0
attr interpolationmode  none
attr source  packetSentToUpper
attr title  "packets passed to higher layer, sum(packetBytes)"
statistic SingleCell.router.ppp[0].queue 	queueingTime:histogram
field count 164
field mean 0
field stddev 0
field sum 0
field sqrsum 0
field min 0
field max 0
attr interpolationmode  none
attr title  "queueing time, histogram"
bin	-INF	0
bin	-0.5	0
bin	-0.46666666666667	0
bin	-0.43333333333333	0
bin	-0.4	0
bin	-0.36666666666667	0
bin	-0.33333333333333	0
bin	-0.3	0
bin	-0.26666666666667	0
bin	-0.23333333333333	0
bin	-0.2	0
bin	-0.16666666666667	0
bin	-0.13333333333333	0
bin	-0.1	0
bin	-0.066666666666667	0
bin	-0.033333333333333	0
bin	0	164
bin	0.033333333333333	0
bin	0.066666666666667	0
bin	0.1	0
bin	0.13333333333333	0
bin	0.16666666666667	0
bin	0.2	0
bin	0.23333333333333	0
bin	0.26666666666667	0
bin	0.3	0
bin	0.33333333333333	0
bin	0.36666666666667	0
bin	0.4	0
bin	0.43333333333333	0
bin	0.46666666666667	0
bin	0.5	0
scalar SingleCell.router.ppp[0].queue 	dropPk:count 	0
attr interpolationmode  none
attr source  dropPkByQueue
attr title  "dropped packets, count"
scalar SingleCell.router.ppp[0].queue 	dropPk:sum(packetBytes) 	0
attr interpolationmode  none
attr source  dropPkByQueue
attr title  "dropped packets, sum(packetBytes)"
scalar SingleCell.router.ppp[0].queue 	queueLength:max 	0
attr interpolationmode  sample-hold
attr title  "queue length, max"
scalar SingleCell.router.ppp[0].queue 	queueLength:timeavg 	0
attr interpolationmode  sample-hold
attr title  "queue length, timeavg"
scalar SingleCell.router.ppp[0].queue 	rcvdPk:count 	164
attr interpolationmode  none
attr title  "received packets, count"
scalar SingleCell.router.ppp[0].queue 	rcvdPk:sum(packetBytes) 	5740
attr interpolationmode  none
attr title  "received packets, sum(packetBytes)"
scalar SingleCell.router.ppp[0].ppp 	txState:timeavg 	2.7552e-08
attr interpolationmode  sample-hold
attr title  "tx state, timeavg"
scalar SingleCell.router.ppp[0].ppp 	droppedPkIfaceDown:count 	0
attr interpolationmode  none
attr source  dropPkIfaceDown
attr title  "packets dropped/interface down, count"
scalar SingleCell.router.ppp[0].ppp 	droppedPkIfaceDown:sum(packetBytes) 	0
attr interpolationmode  none
attr source  dropPkIfaceDown
attr title  "packets dropped/interface down, sum(packetBytes)"
scalar SingleCell.router.ppp[0].ppp 	droppedPkBitError:count 	0
attr interpolationmode  none
attr source  dropPkBitError
attr title  "packets dropped/bit error, count"
scalar SingleCell.router.ppp[0].ppp 	droppedPkBitError:sum(packetBytes) 	0
attr interpolationmode  none
attr source  dropPkBitError
attr title  "packets dropped/bit error, sum(packetBytes)"
scalar SingleCell.router.ppp[0].ppp 	rxPkOk:count 	159331
attr interpolationmode  none
attr source  rxPkOk
attr title  "packets received OK, count"
scalar SingleCell.router.ppp[0].ppp 	rxPkOk:sum(packetBytes) 	164907585
attr interpolationmode  none
attr source  rxPkOk
attr title  "packets received OK, sum(packetBytes)"
scalar SingleCell.router.ppp[0].ppp 	txPk:count 	164
attr interpolationmode  none
attr source  packetSentToLower
attr title  "packets transmitted, count"
scalar SingleCell.router.ppp[0].ppp 	txPk:sum(packetBytes) 	6888
attr interpolationmode  none
attr source  packetSentToLower
attr title  "packets transmitted, sum(packetBytes)"
scalar SingleCell.router.ppp[0].ppp 	rcvdPkFromHL:count 	164
attr interpolationmode  none
attr source  packetReceivedFromUpper
attr title  "packets received from higher layer, count"
scalar SingleCell.router.ppp[0].ppp 	rcvdPkFromHL:sum(packetBytes) 	5740
attr interpolationmode  none
attr source  packetReceivedFromUpper
attr title  "packets received from higher layer, sum(packetBytes)"
scalar SingleCell.router.ppp[0].ppp 	passedUpPk:count 	159331
attr interpolationmode  none
attr source  packetSentToUpper
attr title  "packets passed to higher layer, count"
scalar SingleCell.router.ppp[0].ppp 	passedUpPk:sum(packetBytes) 	163792268
attr interpolationmode  none
attr source  packetSentToUpper
attr title  "packets passed to higher layer, sum(packetBytes)"
statistic SingleCell.router.ppp[1].queue 	queueingTime:histogram
field count 159331
field mean 0
field stddev 0
field sum 0
field sqrsum 0
field min 0
field max 0
attr interpolationmode  none
attr title  "queueing time, histogram"
bin	-INF	0
bin	-0.5	0
bin	-0.46666666666667	0
bin	-0.43333333333333	0
bin	-0.4	0
bin	-0.36666666666667	0
bin	-0.33333333333333	0
bin	-0.3	0
bin	-0.26666666666667	0
bin	-0.23333333333333	0
bin	-0.2	0
bin	-0.16666666666667	0
bin	-0.13333333333333	0
bin	-0.1	0
bin	-0.066666666666667	0
bin	-0.033333333333333	0
bin	0	159331
bin	0.033333333333333	0
bin	0.066666666666667	0
bin	0.1	0
bin	0.13333333333333	0
bin	0.16666666666667	0
bin	0.2	0
bin	0.23333333333333	0
bin	0.26666666666667	0
bin	0.3	0
bin	0.33333333333333	0
bin	0.36666666666667	0
bin	0.4	0
bin	0.43333333333333	0
bin	0.46666666666667	0
bin	0.5	0
scalar SingleCell.router.ppp[1].queue 	dropPk:count 	0
attr interpolationmode  none
attr source  dropPkByQueue
attr title  "dropped packets, count"
scalar SingleCell.router.ppp[1].queue 	dropPk:sum(packetBytes) 	0
attr interpolationmode  none
attr source  dropPkByQueue
attr title  "dropped packets, sum(packetBytes)"
scalar SingleCell.router.ppp[1].queue 	queueLength:max 	0
attr interpolationmode  sample-hold
attr title  "queue length, max"
scalar SingleCell.router.ppp[1].queue 	queueLength:timeavg 	0
attr interpolationmode  sample-hold
attr title  "queue length, timeavg"
scalar SingleCell.router.ppp[1].queue 	rcvdPk:count 	159331
attr interpolationmode  none
attr title  "received packets, count"
scalar SingleCell.router.ppp[1].queue 	rcvdPk:sum(packetBytes) 	163792268
attr interpolationmode  none
attr title  "received packets, sum(packetBytes)"
scalar SingleCell.router.ppp[1].ppp 	txState:timeavg 	0.00065963033999858
attr interpolationmode  sample-hold
attr title  "tx state, timeavg"
scalar SingleCell.router.ppp[1].ppp 	droppedPkIfaceDown:count 	0
attr interpolationmode  none
attr source  dropPkIfaceDown
attr title  "packets dropped/interface down, count"
scalar SingleCell.router.ppp[1].ppp 	droppedPkIfaceDown:sum(packetBytes) 	0
attr interpolationmode  none
attr source  dropPkIfaceDown
attr title  "packets dropped/interface down, sum(packetBytes)"
scalar SingleCell.router.ppp[1].ppp 	droppedPkBitError:count 	0
attr interpolationmode  none
attr source  dropPkBitError
attr title  "packets dropped/bit error, count"
scalar SingleCell.router.ppp[1].ppp 	droppedPkBitError:sum(packetBytes) 	0
attr interpolationmode  none
attr source  dropPkBitError
attr title  "packets dropped/bit error, sum(packetBytes)"
scalar SingleCell.router.ppp[1].ppp 	rxPkOk:count 	164
attr interpolationmode  none
attr source  rxPkOk
attr title  "packets received OK, count"
scalar SingleCell.router.ppp[1].ppp 	rxPkOk:sum(packetBytes) 	6888
attr interpolationmode  none
attr source  rxPkOk
attr title  "packets received OK, sum(packetBytes)"
scalar SingleCell.router.ppp[1].ppp 	txPk:count 	159331
attr interpolationmode  none
attr source  packetSentToLower
attr title  "packets transmitted, count"
scalar SingleCell.router.ppp[1].ppp 	txPk:sum(packetBytes) 	164907585
attr interpolationmode  none
attr source  packetSentToLower
attr title  "packets transmitted, sum(packetBytes)"
scalar SingleCell.router.ppp[1].ppp 	rcvdPkFromHL:count 	159331
attr interpolationmode  none
attr source  packetReceivedFromUpper
attr title  "packets received from higher layer, count"
scalar SingleCell.router.ppp[1].ppp 	rcvdPkFromHL:sum(packetBytes) 	163792268
attr interpolationmode  none
attr source  packetReceivedFromUpper
attr title  "packets received from higher layer, sum(packetBytes)"
scalar SingleCell.router.ppp[1].ppp 	passedUpPk:count 	164
attr interpolationmode  none
attr source  packetSentToUpper
attr title  "packets passed to higher layer, count"
scalar SingleCell.router.ppp[1].ppp 	passedUpPk:sum(packetBytes) 	5740
attr interpolationmode  none
attr source  packetSentToUpper
attr title  "packets passed to higher layer, sum(packetBytes)"
scalar SingleCell.pgw.networkLayer.arp 	failedARPResolution:count 	0
attr title  "ARP failed resolutions, count"
scalar SingleCell.pgw.networkLayer.arp 	completedARPResolution:count 	0
attr title  "ARP completed resolutions, count"
scalar SingleCell.pgw.networkLayer.arp 	initiatedARPResolution:count 	0
attr title  "ARP initiated resolutions, count"
scalar SingleCell.pgw.networkLayer.arp 	sentReply:count 	0
attr title  "ARP replies sent, count"
scalar SingleCell.pgw.networkLayer.arp 	sentReq:count 	0
attr title  "ARP request sent, count"
scalar SingleCell.pgw.lo0.lo 	droppedPkBitError:count 	0
attr interpolationmode  none
attr source  dropPkBitError
attr title  "packets dropped/bit error, count"
scalar SingleCell.pgw.lo0.lo 	droppedPkBitError:sum(packetBytes) 	0
attr interpolationmode  none
attr source  dropPkBitError
attr title  "packets dropped/bit error, sum(packetBytes)"
scalar SingleCell.pgw.lo0.lo 	rcvdPkFromHL:count 	0
attr interpolationmode  none
attr source  packetReceivedFromUpper
attr title  "packets received from higher layer, count"
scalar SingleCell.pgw.lo0.lo 	rcvdPkFromHL:sum(packetBytes) 	0
attr interpolationmode  none
attr source  packetReceivedFromUpper
attr title  "packets received from higher layer, sum(packetBytes)"
scalar SingleCell.pgw.lo0.lo 	passedUpPk:count 	0
attr interpolationmode  none
attr source  packetSentToUpper
attr title  "packets passed to higher layer, count"
scalar SingleCell.pgw.lo0.lo 	passedUpPk:sum(packetBytes) 	0
attr interpolationmode  none
attr source  packetSentToUpper
attr title  "packets passed to higher layer, sum(packetBytes)"
statistic SingleCell.pgw.ppp[0].queue 	queueingTime:histogram
field count 159331
field mean 1.4213148728123e-08
field stddev 2.1560397097141e-08
field sum 0.0022645952000006
field sqrsum 1.0625169408003e-10
field min 0
field max 1.12e-07
attr interpolationmode  none
attr title  "queueing time, histogram"
bin	-INF	0
bin	-0.5	0
bin	-0.46666666666667	0
bin	-0.43333333333333	0
bin	-0.4	0
bin	-0.36666666666667	0
bin	-0.33333333333333	0
bin	-0.3	0
bin	-0.26666666666667	0
bin	-0.23333333333333	0
bin	-0.2	0
bin	-0.16666666666667	0
bin	-0.13333333333333	0
bin	-0.1	0
bin	-0.066666666666667	0
bin	-0.033333333333333	0
bin	0	159331
bin	0.033333333333333	0
bin	0.066666666666667	0
bin	0.1	0
bin	0.13333333333333	0
bin	0.16666666666667	0
bin	0.2	0
bin	0.23333333333333	0
bin	0.26666666666667	0
bin	0.3	0
bin	0.33333333333333	0
bin	0.36666666666667	0
bin	0.4	0
bin	0.43333333333333	0
bin	0.46666666666667	0
bin	0.5	0
scalar SingleCell.pgw.ppp[0].queue 	dropPk:count 	0
attr interpolationmode  none
attr source  dropPkByQueue
attr title  "dropped packets, count"
scalar SingleCell.pgw.ppp[0].queue 	dropPk:sum(packetBytes) 	0
attr interpolationmode  none
attr source  dropPkByQueue
attr title  "dropped packets, sum(packetBytes)"
scalar SingleCell.pgw.ppp[0].queue 	queueLength:max 	1
attr interpolationmode  sample-hold
attr title  "queue length, max"
scalar SingleCell.pgw.ppp[0].queue 	queueLength:timeavg 	1.1322976000003e-05
attr interpolationmode  sample-hold
attr title  "queue length, timeavg"
scalar SingleCell.pgw.ppp[0].queue 	rcvdPk:count 	159331
attr interpolationmode  none
attr title  "received packets, count"
scalar SingleCell.pgw.ppp[0].queue 	rcvdPk:sum(packetBytes) 	168253536
attr interpolationmode  none
attr title  "received packets, sum(packetBytes)"
scalar SingleCell.pgw.ppp[0].ppp 	txState:timeavg 	0.00067747541200113
attr interpolationmode  sample-hold
attr title  "tx state, timeavg"
scalar SingleCell.pgw.ppp[0].ppp 	droppedPkIfaceDown:count 	0
attr interpolationmode  none
attr source  dropPkIfaceDown
attr title  "packets dropped/interface down, count"
scalar SingleCell.pgw.ppp[0].ppp 	droppedPkIfaceDown:sum(packetBytes) 	0
attr interpolationmode  none
attr source  dropPkIfaceDown
attr title  "packets dropped/interface down, sum(packetBytes)"
scalar SingleCell.pgw.ppp[0].ppp 	droppedPkBitError:count 	0
attr interpolationmode  none
attr source  dropPkBitError
attr title  "packets dropped/bit error, count"
scalar SingleCell.pgw.ppp[0].ppp 	droppedPkBitError:sum(packetBytes) 	0
attr interpolationmode  none
attr source  dropPkBitError
attr title  "packets dropped/bit error, sum(packetBytes)"
scalar SingleCell.pgw.ppp[0].ppp 	rxPkOk:count 	164
attr interpolationmode  none
attr source  rxPkOk
attr title  "packets received OK, count"
scalar SingleCell.pgw.ppp[0].ppp 	rxPkOk:sum(packetBytes) 	11480
attr interpolationmode  none
attr source  rxPkOk
attr title  "packets received OK, sum(packetBytes)"
scalar SingleCell.pgw.ppp[0].ppp 	txPk:count 	159331
attr interpolationmode  none
attr source  packetSentToLower
attr title  "packets transmitted, count"
scalar SingleCell.pgw.ppp[0].ppp 	txPk:sum(packetBytes) 	169368853
attr interpolationmode  none
attr source  packetSentToLower
attr title  "packets transmitted, sum(packetBytes)"
scalar SingleCell.pgw.ppp[0].ppp 	rcvdPkFromHL:count 	159331
attr interpolationmode  none
attr source  packetReceivedFromUpper
attr title  "packets received from higher layer, count"
scalar SingleCell.pgw.ppp[0].ppp 	rcvdPkFromHL:sum(packetBytes) 	168253536
attr interpolationmode  none
attr source  packetReceivedFromUpper
attr title  "packets received from higher layer, sum(packetBytes)"
scalar SingleCell.pgw.ppp[0].ppp 	passedUpPk:count 	164
attr interpolationmode  none
attr source  packetSentToUpper
attr title  "packets passed to higher layer, count"
scalar SingleCell.pgw.ppp[0].ppp 	passedUpPk:sum(packetBytes) 	10332
attr interpolationmode  none
attr source  packetSentToUpper
attr title  "packets passed to higher layer, sum(packetBytes)"
statistic SingleCell.pgw.pppInterface.queue 	queueingTime:histogram
field count 164
field mean 0
field stddev 0
field sum 0
field sqrsum 0
field min 0
field max 0
attr interpolationmode  none
attr title  "queueing time, histogram"
bin	-INF	0
bin	-0.5	0
bin	-0.46666666666667	0
bin	-0.43333333333333	0
bin	-0.4	0
bin	-0.36666666666667	0
bin	-0.33333333333333	0
bin	-0.3	0
bin	-0.26666666666667	0
bin	-0.23333333333333	0
bin	-0.2	0
bin	-0.16666666666667	0
bin	-0.13333333333333	0
bin	-0.1	0
bin	-0.066666666666667	0
bin	-0.033333333333333	0
bin	0	164
bin	0.033333333333333	0
bin	0.066666666666667	0
bin	0.1	0
bin	0.13333333333333	0
bin	0.16666666666667	0
bin	0.2	0
bin	0.23333333333333	0
bin	0.26666666666667	0
bin	0.3	0
bin	0.33333333333333	0
bin	0.36666666666667	0
bin	0.4	0
bin	0.43333333333333	0
bin	0.46666666666667	0
bin	0.5	0
scalar SingleCell.pgw.pppInterface.queue 	dropPk:count 	0
attr interpolationmode  none
attr source  dropPkByQueue
attr title  "dropped packets, count"
scalar SingleCell.pgw.pppInterface.queue 	dropPk:sum(packetBytes) 	0
attr interpolationmode  none
attr source  dropPkByQueue
attr title  "dropped packets, sum(packetBytes)"
scalar SingleCell.pgw.pppInterface.queue 	queueLength:max 	0
attr interpolationmode  sample-hold
attr title  "queue length, max"
scalar SingleCell.pgw.pppInterface.queue 	queueLength:timeavg 	0
attr interpolationmode  sample-hold
attr title  "queue length, timeavg"
scalar SingleCell.pgw.pppInterface.queue 	rcvdPk:count 	164
attr interpolationmode  none
attr title  "received packets, count"
scalar SingleCell.pgw.pppInterface.queue 	rcvdPk:sum(packetBytes) 	5740
attr interpolationmode  none
attr title  "received packets, sum(packetBytes)"
scalar SingleCell.pgw.pppInterface.ppp 	txState:timeavg 	2.7552e-08
attr interpolationmode  sample-hold
attr title  "tx state, timeavg"
scalar SingleCell.pgw.pppInterface.ppp 	droppedPkIfaceDown:count 	0
attr interpolationmode  none
attr source  dropPkIfaceDown
attr title  "packets dropped/interface down, count"
scalar SingleCell.pgw.pppInterface.ppp 	droppedPkIfaceDown:sum(packetBytes) 	0
attr interpolationmode  none
attr source  dropPkIfaceDown
attr title  "packets dropped/interface down, sum(packetBytes)"
scalar SingleCell.pgw.pppInterface.ppp 	droppedPkBitError:count 	0
attr interpolationmode  none
attr source  dropPkBitError
attr title  "packets dropped/bit error, count"
scalar SingleCell.pgw.pppInterface.ppp 	droppedPkBitError:sum(packetBytes) 	0
attr interpolationmode  none
attr source  dropPkBitError
attr title  "packets dropped/bit error, sum(packetBytes)"
scalar SingleCell.pgw.pppInterface.ppp 	rxPkOk:count 	159331
attr interpolationmode  none
attr source  rxPkOk
attr title  "packets received OK, count"
scalar SingleCell.pgw.pppInterface.ppp 	rxPkOk:sum(packetBytes) 	164907585
attr interpolationmode  none
attr source  rxPkOk
attr title  "packets received OK, sum(packetBytes)"
scalar SingleCell.pgw.pppInterface.ppp 	txPk:count 	164
attr interpolationmode  none
attr source  packetSentToLower
attr title  "packets transmitted, count"
scalar SingleCell.pgw.pppInterface.ppp 	txPk:sum(packetBytes) 	6888
attr interpolationmode  none
attr source  packetSentToLower
attr title  "packets transmitted, sum(packetBytes)"
scalar SingleCell.pgw.pppInterface.ppp 	rcvdPkFromHL:count 	164
attr interpolationmode  none
attr source  packetReceivedFromUpper
attr title  "packets received from higher layer, count"
scalar SingleCell.pgw.pppInterface.ppp 	rcvdPkFromHL:sum(packetBytes) 	5740
attr interpolationmode  none
attr source  packetReceivedFromUpper
attr title  "packets received from higher layer, sum(packetBytes)"
scalar SingleCell.pgw.pppInterface.ppp 	passedUpPk:count 	159331
attr interpolationmode  none
attr source  packetSentToUpper
attr title  "packets passed to higher layer, count"
scalar SingleCell.pgw.pppInterface.ppp 	passedUpPk:sum(packetBytes) 	163792268
attr interpolationmode  none
attr source  packetSentToUpper
attr title  "packets passed to higher layer, sum(packetBytes)"
scalar SingleCell.pgw.udp 	droppedPkBadChecksum:count 	0
attr interpolationmode  none
attr title  "packets dropped (checksum error), count"
scalar SingleCell.pgw.udp 	droppedPkWrongPort:count 	0
attr interpolationmode  none
attr title  "packets dropped (wrong port), count"
scalar SingleCell.pgw.udp 	passedUpPk:count 	164
attr interpolationmode  none
attr title  "packets passed up, count"
scalar SingleCell.pgw.udp 	rcvdPk:count 	164
attr interpolationmode  none
attr source  rcvdPk
attr title  "packets received, count"
scalar SingleCell.pgw.udp 	rcvdPk:sum(packetBytes) 	7052
attr interpolationmode  none
attr source  rcvdPk
attr title  "packets received, sum(packetBytes)"
scalar SingleCell.pgw.udp 	sentPk:count 	159331
attr interpolationmode  none
attr source  sentPk
attr title  "packets sent, count"
scalar SingleCell.pgw.udp 	sentPk:sum(packetBytes) 	165066916
attr interpolationmode  none
attr source  sentPk
attr title  "packets sent, sum(packetBytes)"
scalar SingleCell.eNodeB.nic.pdcpRrc 	sentPacketToLowerLayer:count 	159431
attr interpolationmode  none
attr source  sentPacketToLowerLayer
scalar SingleCell.eNodeB.nic.pdcpRrc 	sentPacketToLowerLayer:sum(packetBytes) 	163955199
attr interpolationmode  none
attr source  sentPacketToLowerLayer
scalar SingleCell.eNodeB.nic.pdcpRrc 	sentPacketToUpperLayer:count 	264
attr interpolationmode  none
attr source  sentPacketToUpperLayer
scalar SingleCell.eNodeB.nic.pdcpRrc 	sentPacketToUpperLayer:sum(packetBytes) 	9240
attr interpolationmode  none
attr source  sentPacketToUpperLayer
scalar SingleCell.eNodeB.nic.pdcpRrc 	receivedPacketFromLowerLayer:count 	264
attr interpolationmode  none
attr source  receivedPacketFromLowerLayer
scalar SingleCell.eNodeB.nic.pdcpRrc 	receivedPacketFromLowerLayer:sum(packetBytes) 	9504
attr interpolationmode  none
attr source  receivedPacketFromLowerLayer
scalar SingleCell.eNodeB.nic.pdcpRrc 	receivedPacketFromUpperLayer:count 	159431
attr interpolationmode  none
attr source  receivedPacketFromUpperLayer
scalar SingleCell.eNodeB.nic.pdcpRrc 	receivedPacketFromUpperLayer:sum(packetBytes) 	163795768
attr interpolationmode  none
attr source  receivedPacketFromUpperLayer
scalar SingleCell.eNodeB.nic.rlc.um 	rlcCellPacketLossUl:lteAvg 	0
attr source  rlcCellPacketLossUl
attr title  "rlc Cell Packet Loss, lteAvg"
attr unit  ""
scalar SingleCell.eNodeB.nic.rlc.um 	rlcCellPacketLossDl:lteAvg 	0.89869322785112
attr source  rlcCellPacketLossDl
attr title  "rlc Cell Packet Loss, lteAvg"
attr unit  ""
scalar SingleCell.eNodeB.nic.rlc.um 	rlcCellThroughputDl:lteRate 	828100.53690394
attr source  rlcCellThroughputDl
attr title  "Cell Throughput at the rlc layer DL, lteRate"
attr unit  Bps
scalar SingleCell.eNodeB.nic.rlc.um 	rlcCellThroughputUl:lteRate 	48.001939472302
attr source  rlcCellThroughputUl
attr title  "Cell Throughput at the rlc layer UL, lteRate"
attr unit  Bps
scalar SingleCell.eNodeB.nic.mac 	cqiDlMuMimo0:lteAvg 	13.336563268735
attr source  cqiDlMuMimo0
attr title  "Average cqi MuMimo band 0, lteAvg"
attr unit  cqi
scalar SingleCell.eNodeB.nic.mac 	cqiDlMuMimo0:lteAvg 	14.316913661727
attr source  cqiDlMuMimo0
attr title  "Average cqi MuMimo band 0, lteAvg"
attr unit  cqi
scalar SingleCell.eNodeB.nic.mac 	cqiDlMuMimo0:lteAvg 	14.282084358313
attr source  cqiDlMuMimo0
attr title  "Average cqi MuMimo band 0, lteAvg"
attr unit  cqi
scalar SingleCell.eNodeB.nic.mac 	cqiDlMuMimo0:lteAvg 	5.7359152816944
attr source  cqiDlMuMimo0
attr title  "Average cqi MuMimo band 0, lteAvg"
attr unit  cqi
scalar SingleCell.eNodeB.nic.mac 	cqiDlMuMimo0:lteAvg 	14.367582648347
attr source  cqiDlMuMimo0
attr title  "Average cqi MuMimo band 0, lteAvg"
attr unit  cqi
scalar SingleCell.eNodeB.nic.mac 	cqiDlMuMimo0:lteAvg 	14.518179636407
attr source  cqiDlMuMimo0
attr title  "Average cqi MuMimo band 0, lteAvg"
attr unit  cqi
scalar SingleCell.eNodeB.nic.mac 	cqiDlMuMimo0:lteAvg 	13.654046919062
attr source  cqiDlMuMimo0
attr title  "Average cqi MuMimo band 0, lteAvg"
attr unit  cqi
scalar SingleCell.eNodeB.nic.mac 	cqiDlMuMimo0:lteAvg 	6.3812323753525
attr source  cqiDlMuMimo0
attr title  "Average cqi MuMimo band 0, lteAvg"
attr unit  cqi
scalar SingleCell.eNodeB.nic.mac 	cqiDlMuMimo0:lteAvg 	12.469160616788
attr source  cqiDlMuMimo0
attr title  "Average cqi MuMimo band 0, lteAvg"
attr unit  cqi
scalar SingleCell.eNodeB.nic.mac 	cqiDlMuMimo0:lteAvg 	11.469370612588
attr source  cqiDlMuMimo0
attr title  "Average cqi MuMimo band 0, lteAvg"
attr unit  cqi
scalar SingleCell.eNodeB.nic.mac 	cqiDlTxDiv0:lteAvg 	14.993790124198
attr source  cqiDlTxDiv0
attr title  "Average cqi TxDiv band 0, lteAvg"
attr unit  cqi
scalar SingleCell.eNodeB.nic.mac 	cqiDlTxDiv0:lteAvg 	14.993310133797
attr source  cqiDlTxDiv0
attr title  "Average cqi TxDiv band 0, lteAvg"
attr unit  cqi
scalar SingleCell.eNodeB.nic.mac 	cqiDlTxDiv0:lteAvg 	14.995110097798
attr source  cqiDlTxDiv0
attr title  "Average cqi TxDiv band 0, lteAvg"
attr unit  cqi
scalar SingleCell.eNodeB.nic.mac 	cqiDlTxDiv0:lteAvg 	12.882642347153
attr source  cqiDlTxDiv0
attr title  "Average cqi TxDiv band 0, lteAvg"
attr unit  cqi
scalar SingleCell.eNodeB.nic.mac 	cqiDlTxDiv0:lteAvg 	14.993610127797
attr source  cqiDlTxDiv0
attr title  "Average cqi TxDiv band 0, lteAvg"
attr unit  cqi
scalar SingleCell.eNodeB.nic.mac 	cqiDlTxDiv0:lteAvg 	14.995140097198
attr source  cqiDlTxDiv0
attr title  "Average cqi TxDiv band 0, lteAvg"
attr unit  cqi
scalar SingleCell.eNodeB.nic.mac 	cqiDlTxDiv0:lteAvg 	14.992590148197
attr source  cqiDlTxDiv0
attr title  "Average cqi TxDiv band 0, lteAvg"
attr unit  cqi
scalar SingleCell.eNodeB.nic.mac 	cqiDlTxDiv0:lteAvg 	13.42419151617
attr source  cqiDlTxDiv0
attr title  "Average cqi TxDiv band 0, lteAvg"
attr unit  cqi
scalar SingleCell.eNodeB.nic.mac 	cqiDlTxDiv0:lteAvg 	14.987370252595
attr source  cqiDlTxDiv0
attr title  "Average cqi TxDiv band 0, lteAvg"
attr unit  cqi
scalar SingleCell.eNodeB.nic.mac 	cqiDlTxDiv0:lteAvg 	14.952120957581
attr source  cqiDlTxDiv0
attr title  "Average cqi TxDiv band 0, lteAvg"
attr unit  cqi
scalar SingleCell.eNodeB.nic.mac 	cqiDlSpmux0:lteAvg 	11.67513649727
attr source  cqiDlSpmux0
attr title  "Average cqi Spmux band 0, lteAvg"
attr unit  cqi
scalar SingleCell.eNodeB.nic.mac 	cqiDlSpmux0:lteAvg 	13.520069598608
attr source  cqiDlSpmux0
attr title  "Average cqi Spmux band 0, lteAvg"
attr unit  cqi
scalar SingleCell.eNodeB.nic.mac 	cqiDlSpmux0:lteAvg 	13.107277854443
attr source  cqiDlSpmux0
attr title  "Average cqi Spmux band 0, lteAvg"
attr unit  cqi
scalar SingleCell.eNodeB.nic.mac 	cqiDlSpmux0:lteAvg 	5.247585048299
attr source  cqiDlSpmux0
attr title  "Average cqi Spmux band 0, lteAvg"
attr unit  cqi
scalar SingleCell.eNodeB.nic.mac 	cqiDlSpmux0:lteAvg 	13.499100018
attr source  cqiDlSpmux0
attr title  "Average cqi Spmux band 0, lteAvg"
attr unit  cqi
scalar SingleCell.eNodeB.nic.mac 	cqiDlSpmux0:lteAvg 	13.765854682906
attr source  cqiDlSpmux0
attr title  "Average cqi Spmux band 0, lteAvg"
attr unit  cqi
scalar SingleCell.eNodeB.nic.mac 	cqiDlSpmux0:lteAvg 	12.269334613308
attr source  cqiDlSpmux0
attr title  "Average cqi Spmux band 0, lteAvg"
attr unit  cqi
scalar SingleCell.eNodeB.nic.mac 	cqiDlSpmux0:lteAvg 	5.9297414051719
attr source  cqiDlSpmux0
attr title  "Average cqi Spmux band 0, lteAvg"
attr unit  cqi
scalar SingleCell.eNodeB.nic.mac 	cqiDlSpmux0:lteAvg 	10.865752684946
attr source  cqiDlSpmux0
attr title  "Average cqi Spmux band 0, lteAvg"
attr unit  cqi
scalar SingleCell.eNodeB.nic.mac 	cqiDlSpmux0:lteAvg 	9.0654886902262
attr source  cqiDlSpmux0
attr title  "Average cqi Spmux band 0, lteAvg"
attr unit  cqi
scalar SingleCell.eNodeB.nic.mac 	cqiDlSiso0:lteAvg 	13.336563268735
attr source  cqiDlSiso0
attr title  "Average cqi siso band 0, lteAvg"
attr unit  cqi
scalar SingleCell.eNodeB.nic.mac 	cqiDlSiso0:lteAvg 	14.316913661727
attr source  cqiDlSiso0
attr title  "Average cqi siso band 0, lteAvg"
attr unit  cqi
scalar SingleCell.eNodeB.nic.mac 	cqiDlSiso0:lteAvg 	14.282084358313
attr source  cqiDlSiso0
attr title  "Average cqi siso band 0, lteAvg"
attr unit  cqi
scalar SingleCell.eNodeB.nic.mac 	cqiDlSiso0:lteAvg 	5.7359152816944
attr source  cqiDlSiso0
attr title  "Average cqi siso band 0, lteAvg"
attr unit  cqi
scalar SingleCell.eNodeB.nic.mac 	cqiDlSiso0:lteAvg 	14.367582648347
attr source  cqiDlSiso0
attr title  "Average cqi siso band 0, lteAvg"
attr unit  cqi
scalar SingleCell.eNodeB.nic.mac 	cqiDlSiso0:lteAvg 	14.518179636407
attr source  cqiDlSiso0
attr title  "Average cqi siso band 0, lteAvg"
attr unit  cqi
scalar SingleCell.eNodeB.nic.mac 	cqiDlSiso0:lteAvg 	13.654046919062
attr source  cqiDlSiso0
attr title  "Average cqi siso band 0, lteAvg"
attr unit  cqi
scalar SingleCell.eNodeB.nic.mac 	cqiDlSiso0:lteAvg 	6.3812323753525
attr source  cqiDlSiso0
attr title  "Average cqi siso band 0, lteAvg"
attr unit  cqi
scalar SingleCell.eNodeB.nic.mac 	cqiDlSiso0:lteAvg 	12.469160616788
attr source  cqiDlSiso0
attr title  "Average cqi siso band 0, lteAvg"
attr unit  cqi
scalar SingleCell.eNodeB.nic.mac 	cqiDlSiso0:lteAvg 	11.469370612588
attr source  cqiDlSiso0
attr title  "Average cqi siso band 0, lteAvg"
attr unit  cqi
scalar SingleCell.eNodeB.nic.mac 	depletedPowerUl:lteAvg 	0
attr source  depletedPowerUl
attr title  "LTE ENodeB depleted power Ul, lteAvg"
attr unit  watts
scalar SingleCell.eNodeB.nic.mac 	depletedPowerDl:lteAvg 	301.62261719982
attr source  depletedPowerDl
attr title  "LTE ENodeB depleted power Dl, lteAvg"
attr unit  watts
scalar SingleCell.eNodeB.nic.mac 	avgServedBlocksUl:lteAvg 	0.951125
attr source  avgServedBlocksUl
attr title  "LTE Avg Served Blocks Ul, lteAvg"
attr unit  blocks
scalar SingleCell.eNodeB.nic.mac 	avgServedBlocksDl:lteAvg 	11.069845
attr source  avgServedBlocksDl
attr title  "LTE Avg Served Blocks Dl, lteAvg"
attr unit  blocks
scalar SingleCell.eNodeB.nic.mac 	cellBlocksUtilizationUl:lteAvg 	0.0095112499999921
attr source  cellBlocksUtilizationUl
attr title  "LTE Cell Blocks Utilization Ul, lteAvg"
attr unit  blocks
scalar SingleCell.eNodeB.nic.mac 	cellBlocksUtilizationDl:lteAvg 	0.11069845000004
attr source  cellBlocksUtilizationDl
attr title  "LTE Cell Blocks Utilization Dl, lteAvg"
attr unit  blocks
scalar SingleCell.eNodeB.nic.mac 	measuredItbs:mean 	20.632432369439
attr source  measuredItbs
attr title  "TBS index, mean"
attr unit  ""
scalar SingleCell.eNodeB.nic.mac 	harqErrorRate_4th_D2D:mean 	-nan
attr source  harqErrorRate_4th_D2D
attr title  "Harq Error Rate D2D, mean"
attr unit  ""
scalar SingleCell.eNodeB.nic.mac 	harqErrorRate_4th_Dl:mean 	-nan
attr source  harqErrorRate_4th_Dl
attr title  "Harq Error Rate Dl, mean"
attr unit  ""
scalar SingleCell.eNodeB.nic.mac 	harqErrorRate_4th_Ul:mean 	-nan
attr source  harqErrorRate_4th_Ul
attr title  "Harq Error Rate Dl, mean"
attr unit  ""
scalar SingleCell.eNodeB.nic.mac 	harqErrorRate_3rd_D2D:mean 	-nan
attr source  harqErrorRate_3rd_D2D
attr title  "Harq Error Rate D2D, mean"
attr unit  ""
scalar SingleCell.eNodeB.nic.mac 	harqErrorRate_3rd_Dl:mean 	-nan
attr source  harqErrorRate_3rd_Dl
attr title  "Harq Error Rate Dl, mean"
attr unit  ""
scalar SingleCell.eNodeB.nic.mac 	harqErrorRate_3rd_Ul:mean 	-nan
attr source  harqErrorRate_3rd_Ul
attr title  "Harq Error Rate Dl, mean"
attr unit  ""
scalar SingleCell.eNodeB.nic.mac 	harqErrorRate_2nd_D2D:mean 	-nan
attr source  harqErrorRate_2nd_D2D
attr title  "Harq Error Rate D2D, mean"
attr unit  ""
scalar SingleCell.eNodeB.nic.mac 	harqErrorRate_2nd_Dl:mean 	-nan
attr source  harqErrorRate_2nd_Dl
attr title  "Harq Error Rate Dl, mean"
attr unit  ""
scalar SingleCell.eNodeB.nic.mac 	harqErrorRate_2nd_Ul:mean 	-nan
attr source  harqErrorRate_2nd_Ul
attr title  "Harq Error Rate Dl, mean"
attr unit  ""
scalar SingleCell.eNodeB.nic.mac 	harqErrorRate_1st_D2D:mean 	-nan
attr source  harqErrorRate_1st_D2D
attr title  "Harq Error Rate D2D, mean"
attr unit  ""
scalar SingleCell.eNodeB.nic.mac 	harqErrorRate_1st_Dl:mean 	-nan
attr source  harqErrorRate_1st_Dl
attr title  "Harq Error Rate Dl, mean"
attr unit  ""
scalar SingleCell.eNodeB.nic.mac 	harqErrorRate_1st_Ul:mean 	-nan
attr source  harqErrorRate_1st_Ul
attr title  "Harq Error Rate Dl, mean"
attr unit  ""
scalar SingleCell.eNodeB.nic.mac 	harqErrorRateD2D:mean 	-nan
attr source  harqErrorRateD2D
attr title  "Harq Error Rate D2D, mean"
attr unit  ""
scalar SingleCell.eNodeB.nic.mac 	harqErrorRateDl:mean 	-nan
attr source  harqErrorRateDl
attr title  "Harq Error Rate Dl, mean"
attr unit  ""
scalar SingleCell.eNodeB.nic.mac 	harqErrorRateUl:mean 	-nan
attr source  harqErrorRateUl
attr title  "Harq Error Rate Dl, mean"
attr unit  ""
scalar SingleCell.eNodeB.nic.mac 	macPacketLossD2D:mean 	-nan
attr source  macPacketLossD2D
attr title  "Mac Packet Loss D2D, mean"
attr unit  ""
scalar SingleCell.eNodeB.nic.mac 	macPacketLossDl:mean 	-nan
attr source  macPacketLossDl
attr title  "Mac Packet Loss, mean"
attr unit  ""
scalar SingleCell.eNodeB.nic.mac 	macPacketLossUl:mean 	-nan
attr source  macPacketLossUl
attr title  "Mac Packet Loss, mean"
attr unit  ""
scalar SingleCell.eNodeB.nic.mac 	macCellPacketLossD2D:mean 	-nan
attr source  macCellPacketLossD2D
attr title  "Mac Cell Packet Loss D2D, mean"
attr unit  ""
scalar SingleCell.eNodeB.nic.mac 	macCellPacketLossUl:mean 	0
attr source  macCellPacketLossUl
attr title  "Mac Cell Packet Loss, mean"
attr unit  ""
scalar SingleCell.eNodeB.nic.mac 	macCellPacketLossDl:mean 	0
attr source  macCellPacketLossDl
attr title  "Mac Cell Packet Loss, mean"
attr unit  ""
scalar SingleCell.eNodeB.nic.mac 	macCellThroughputDl:lteRate 	830838.63587003
attr source  macCellThroughputDl
attr title  "Cell Throughput at the MAC layer DL, lteRate"
attr unit  Bps
scalar SingleCell.eNodeB.nic.mac 	macCellThroughputUl:lteRate 	62.901531375005
attr source  macCellThroughputUl
attr title  "Cell Throughput at the MAC layer UL, lteRate"
attr unit  Bps
scalar SingleCell.ue[0].nic.mac 	macThroughputUl:lteRate 	10.202432421512
attr source  macThroughputUl
attr title  "Throughput at the MAC layer UL, lteRate"
attr unit  Bps
scalar SingleCell.ue[1].nic.mac 	macThroughputUl:lteRate 	14.021873271203
attr source  macThroughputUl
attr title  "Throughput at the MAC layer UL, lteRate"
attr unit  Bps
scalar SingleCell.ue[2].nic.mac 	macThroughputUl:lteRate 	10.539110099083
attr source  macThroughputUl
attr title  "Throughput at the MAC layer UL, lteRate"
attr unit  Bps
scalar SingleCell.ue[3].nic.mac 	macThroughputUl:lteRate 	11.867457830522
attr source  macThroughputUl
attr title  "Throughput at the MAC layer UL, lteRate"
attr unit  Bps
scalar SingleCell.ue[4].nic.mac 	macThroughputUl:lteRate 	18.251825182518
attr source  macThroughputUl
attr title  "Throughput at the MAC layer UL, lteRate"
attr unit  Bps
scalar SingleCell.ue[5].nic.mac 	macThroughputUl:lteRate 	11.094516748453
attr source  macThroughputUl
attr title  "Throughput at the MAC layer UL, lteRate"
attr unit  Bps
scalar SingleCell.ue[6].nic.mac 	macThroughputUl:lteRate 	10.466900482245
attr source  macThroughputUl
attr title  "Throughput at the MAC layer UL, lteRate"
attr unit  Bps
scalar SingleCell.ue[7].nic.mac 	macThroughputUl:lteRate 	13.478581979321
attr source  macThroughputUl
attr title  "Throughput at the MAC layer UL, lteRate"
attr unit  Bps
scalar SingleCell.ue[8].nic.mac 	macThroughputUl:lteRate 	11.681869099056
attr source  macThroughputUl
attr title  "Throughput at the MAC layer UL, lteRate"
attr unit  Bps
scalar SingleCell.ue[9].nic.mac 	macThroughputUl:lteRate 	10.846372688478
attr source  macThroughputUl
attr title  "Throughput at the MAC layer UL, lteRate"
attr unit  Bps
scalar SingleCell.ue[0].nic.mac 	macDelayUl:lteAvg 	0.004
attr source  macDelayUl
attr title  "Delay at the MAC layer UL, lteAvg"
attr unit  s
scalar SingleCell.ue[1].nic.mac 	macDelayUl:lteAvg 	0.00416
attr source  macDelayUl
attr title  "Delay at the MAC layer UL, lteAvg"
attr unit  s
scalar SingleCell.ue[2].nic.mac 	macDelayUl:lteAvg 	0.004
attr source  macDelayUl
attr title  "Delay at the MAC layer UL, lteAvg"
attr unit  s
scalar SingleCell.ue[3].nic.mac 	macDelayUl:lteAvg 	0.004
attr source  macDelayUl
attr title  "Delay at the MAC layer UL, lteAvg"
attr unit  s
scalar SingleCell.ue[4].nic.mac 	macDelayUl:lteAvg 	0.0042829581993569
attr source  macDelayUl
attr title  "Delay at the MAC layer UL, lteAvg"
attr unit  s
scalar SingleCell.ue[5].nic.mac 	macDelayUl:lteAvg 	0.004
attr source  macDelayUl
attr title  "Delay at the MAC layer UL, lteAvg"
attr unit  s
scalar SingleCell.ue[6].nic.mac 	macDelayUl:lteAvg 	0.004
attr source  macDelayUl
attr title  "Delay at the MAC layer UL, lteAvg"
attr unit  s
scalar SingleCell.ue[7].nic.mac 	macDelayUl:lteAvg 	0.0041860465116279
attr source  macDelayUl
attr title  "Delay at the MAC layer UL, lteAvg"
attr unit  s
scalar SingleCell.ue[8].nic.mac 	macDelayUl:lteAvg 	0.004
attr source  macDelayUl
attr title  "Delay at the MAC layer UL, lteAvg"
attr unit  s
scalar SingleCell.ue[9].nic.mac 	macDelayUl:lteAvg 	0.004
attr source  macDelayUl
attr title  "Delay at the MAC layer UL, lteAvg"
attr unit  s
scalar SingleCell.eNodeB.nic.mac 	sentPacketToLowerLayer:count 	328572
attr interpolationmode  none
attr source  sentPacketToLowerLayer
scalar SingleCell.eNodeB.nic.mac 	sentPacketToLowerLayer:sum(packetBytes) 	165977997
attr interpolationmode  none
attr source  sentPacketToLowerLayer
scalar SingleCell.eNodeB.nic.mac 	sentPacketToUpperLayer:count 	135947
attr interpolationmode  none
attr source  sentPacketToUpperLayer
scalar SingleCell.eNodeB.nic.mac 	sentPacketToUpperLayer:sum(packetBytes) 	10342
attr interpolationmode  none
attr source  sentPacketToUpperLayer
scalar SingleCell.eNodeB.nic.mac 	receivedPacketFromLowerLayer:count 	471887
attr interpolationmode  none
attr source  receivedPacketFromLowerLayer
scalar SingleCell.eNodeB.nic.mac 	receivedPacketFromLowerLayer:sum(packetBytes) 	12673
attr interpolationmode  none
attr source  receivedPacketFromLowerLayer
scalar SingleCell.eNodeB.nic.mac 	receivedPacketFromUpperLayer:count 	294959
attr interpolationmode  none
attr source  receivedPacketFromUpperLayer
scalar SingleCell.eNodeB.nic.mac 	receivedPacketFromUpperLayer:sum(packetBytes) 	328181454
attr interpolationmode  none
attr source  receivedPacketFromUpperLayer
scalar SingleCell.ue[0].nic.mac 	averageCqiUl:lteAvg 	13.327272727273
attr source  averageCqiUl
attr title  "Average Cqi reported in UL, lteAvg"
attr unit  cqi
scalar SingleCell.ue[1].nic.mac 	averageCqiUl:lteAvg 	3.672268907563
attr source  averageCqiUl
attr title  "Average Cqi reported in UL, lteAvg"
attr unit  cqi
scalar SingleCell.ue[2].nic.mac 	averageCqiUl:lteAvg 	13.459459459459
attr source  averageCqiUl
attr title  "Average Cqi reported in UL, lteAvg"
attr unit  cqi
scalar SingleCell.ue[3].nic.mac 	averageCqiUl:lteAvg 	4.6666666666667
attr source  averageCqiUl
attr title  "Average Cqi reported in UL, lteAvg"
attr unit  cqi
scalar SingleCell.ue[4].nic.mac 	averageCqiUl:lteAvg 	2.7888198757764
attr source  averageCqiUl
attr title  "Average Cqi reported in UL, lteAvg"
attr unit  cqi
scalar SingleCell.ue[5].nic.mac 	averageCqiUl:lteAvg 	11.392857142857
attr source  averageCqiUl
attr title  "Average Cqi reported in UL, lteAvg"
attr unit  cqi
scalar SingleCell.ue[6].nic.mac 	averageCqiUl:lteAvg 	13.95
attr source  averageCqiUl
attr title  "Average Cqi reported in UL, lteAvg"
attr unit  cqi
scalar SingleCell.ue[7].nic.mac 	averageCqiUl:lteAvg 	4.5
attr source  averageCqiUl
attr title  "Average Cqi reported in UL, lteAvg"
attr unit  cqi
scalar SingleCell.ue[8].nic.mac 	averageCqiUl:lteAvg 	10.8
attr source  averageCqiUl
attr title  "Average Cqi reported in UL, lteAvg"
attr unit  cqi
scalar SingleCell.ue[9].nic.mac 	averageCqiUl:lteAvg 	13.142857142857
attr source  averageCqiUl
attr title  "Average Cqi reported in UL, lteAvg"
attr unit  cqi
statistic SingleCell.eNodeB.pppIf.queue 	queueingTime:histogram
field count 164
field mean 0
field stddev 0
field sum 0
field sqrsum 0
field min 0
field max 0
attr interpolationmode  none
attr title  "queueing time, histogram"
bin	-INF	0
bin	-0.5	0
bin	-0.46666666666667	0
bin	-0.43333333333333	0
bin	-0.4	0
bin	-0.36666666666667	0
bin	-0.33333333333333	0
bin	-0.3	0
bin	-0.26666666666667	0
bin	-0.23333333333333	0
bin	-0.2	0
bin	-0.16666666666667	0
bin	-0.13333333333333	0
bin	-0.1	0
bin	-0.066666666666667	0
bin	-0.033333333333333	0
bin	0	164
bin	0.033333333333333	0
bin	0.066666666666667	0
bin	0.1	0
bin	0.13333333333333	0
bin	0.16666666666667	0
bin	0.2	0
bin	0.23333333333333	0
bin	0.26666666666667	0
bin	0.3	0
bin	0.33333333333333	0
bin	0.36666666666667	0
bin	0.4	0
bin	0.43333333333333	0
bin	0.46666666666667	0
bin	0.5	0
scalar SingleCell.eNodeB.pppIf.queue 	dropPk:count 	0
attr interpolationmode  none
attr source  dropPkByQueue
attr title  "dropped packets, count"
scalar SingleCell.eNodeB.pppIf.queue 	dropPk:sum(packetBytes) 	0
attr interpolationmode  none
attr source  dropPkByQueue
attr title  "dropped packets, sum(packetBytes)"
scalar SingleCell.eNodeB.pppIf.queue 	queueLength:max 	0
attr interpolationmode  sample-hold
attr title  "queue length, max"
scalar SingleCell.eNodeB.pppIf.queue 	queueLength:timeavg 	0
attr interpolationmode  sample-hold
attr title  "queue length, timeavg"
scalar SingleCell.eNodeB.pppIf.queue 	rcvdPk:count 	164
attr interpolationmode  none
attr title  "received packets, count"
scalar SingleCell.eNodeB.pppIf.queue 	rcvdPk:sum(packetBytes) 	10332
attr interpolationmode  none
attr title  "received packets, sum(packetBytes)"
scalar SingleCell.eNodeB.pppIf.ppp 	txState:timeavg 	4.592e-08
attr interpolationmode  sample-hold
attr title  "tx state, timeavg"
scalar SingleCell.eNodeB.pppIf.ppp 	droppedPkIfaceDown:count 	0
attr interpolationmode  none
attr source  dropPkIfaceDown
attr title  "packets dropped/interface down, count"
scalar SingleCell.eNodeB.pppIf.ppp 	droppedPkIfaceDown:sum(packetBytes) 	0
attr interpolationmode  none
attr source  dropPkIfaceDown
attr title  "packets dropped/interface down, sum(packetBytes)"
scalar SingleCell.eNodeB.pppIf.ppp 	droppedPkBitError:count 	0
attr interpolationmode  none
attr source  dropPkBitError
attr title  "packets dropped/bit error, count"
scalar SingleCell.eNodeB.pppIf.ppp 	droppedPkBitError:sum(packetBytes) 	0
attr interpolationmode  none
attr source  dropPkBitError
attr title  "packets dropped/bit error, sum(packetBytes)"
scalar SingleCell.eNodeB.pppIf.ppp 	rxPkOk:count 	159331
attr interpolationmode  none
attr source  rxPkOk
attr title  "packets received OK, count"
scalar SingleCell.eNodeB.pppIf.ppp 	rxPkOk:sum(packetBytes) 	169368853
attr interpolationmode  none
attr source  rxPkOk
attr title  "packets received OK, sum(packetBytes)"
scalar SingleCell.eNodeB.pppIf.ppp 	txPk:count 	164
attr interpolationmode  none
attr source  packetSentToLower
attr title  "packets transmitted, count"
scalar SingleCell.eNodeB.pppIf.ppp 	txPk:sum(packetBytes) 	11480
attr interpolationmode  none
attr source  packetSentToLower
attr title  "packets transmitted, sum(packetBytes)"
scalar SingleCell.eNodeB.pppIf.ppp 	rcvdPkFromHL:count 	164
attr interpolationmode  none
attr source  packetReceivedFromUpper
attr title  "packets received from higher layer, count"
scalar SingleCell.eNodeB.pppIf.ppp 	rcvdPkFromHL:sum(packetBytes) 	10332
attr interpolationmode  none
attr source  packetReceivedFromUpper
attr title  "packets received from higher layer, sum(packetBytes)"
scalar SingleCell.eNodeB.pppIf.ppp 	passedUpPk:count 	159331
attr interpolationmode  none
attr source  packetSentToUpper
attr title  "packets passed to higher layer, count"
scalar SingleCell.eNodeB.pppIf.ppp 	passedUpPk:sum(packetBytes) 	168253536
attr interpolationmode  none
attr source  packetSentToUpper
attr title  "packets passed to higher layer, sum(packetBytes)"
scalar SingleCell.eNodeB.networkLayer.arp 	failedARPResolution:count 	0
attr title  "ARP failed resolutions, count"
scalar SingleCell.eNodeB.networkLayer.arp 	completedARPResolution:count 	0
attr title  "ARP completed resolutions, count"
scalar SingleCell.eNodeB.networkLayer.arp 	initiatedARPResolution:count 	0
attr title  "ARP initiated resolutions, count"
scalar SingleCell.eNodeB.networkLayer.arp 	sentReply:count 	0
attr title  "ARP replies sent, count"
scalar SingleCell.eNodeB.networkLayer.arp 	sentReq:count 	0
attr title  "ARP request sent, count"
scalar SingleCell.eNodeB.udp 	droppedPkBadChecksum:count 	0
attr interpolationmode  none
attr title  "packets dropped (checksum error), count"
scalar SingleCell.eNodeB.udp 	droppedPkWrongPort:count 	0
attr interpolationmode  none
attr title  "packets dropped (wrong port), count"
scalar SingleCell.eNodeB.udp 	passedUpPk:count 	159331
attr interpolationmode  none
attr title  "packets passed up, count"
scalar SingleCell.eNodeB.udp 	rcvdPk:count 	159331
attr interpolationmode  none
attr source  rcvdPk
attr title  "packets received, count"
scalar SingleCell.eNodeB.udp 	rcvdPk:sum(packetBytes) 	165066916
attr interpolationmode  none
attr source  rcvdPk
attr title  "packets received, sum(packetBytes)"
scalar SingleCell.eNodeB.udp 	sentPk:count 	164
attr interpolationmode  none
attr source  sentPk
attr title  "packets sent, count"
scalar SingleCell.eNodeB.udp 	sentPk:sum(packetBytes) 	7052
attr interpolationmode  none
attr source  sentPk
attr title  "packets sent, sum(packetBytes)"
statistic SingleCell.ue[0].udpApp[0] 	endToEndDelay:stats
field count 24
field mean 8.0075
field stddev 0.0047089184572387
field sum 192.18
field sqrsum 1538.88186
field min 8.002
field max 8.018
attr interpolationmode  none
attr source  segmentCompletionTime
attr title  "end-to-end delay, stats"
statistic SingleCell.ue[0].udpApp[1] 	endToEndDelay:stats
field count 24
field mean 8.0077083333333
field stddev 0.0049649131211405
field sum 192.185
field sqrsum 1538.961993
field min 8.002
field max 8.018
attr interpolationmode  none
attr source  segmentCompletionTime
attr title  "end-to-end delay, stats"
scalar SingleCell.ue[0].udp 	droppedPkBadChecksum:count 	0
attr interpolationmode  none
attr title  "packets dropped (checksum error), count"
scalar SingleCell.ue[0].udp 	droppedPkWrongPort:count 	0
attr interpolationmode  none
attr title  "packets dropped (wrong port), count"
scalar SingleCell.ue[0].udp 	passedUpPk:count 	21029
attr interpolationmode  none
attr title  "packets passed up, count"
scalar SingleCell.ue[0].udp 	rcvdPk:count 	21029
attr interpolationmode  none
attr source  rcvdPk
attr title  "packets received, count"
scalar SingleCell.ue[0].udp 	rcvdPk:sum(packetBytes) 	21168435
attr interpolationmode  none
attr source  rcvdPk
attr title  "packets received, sum(packetBytes)"
scalar SingleCell.ue[0].udp 	sentPk:count 	50
attr interpolationmode  none
attr source  sentPk
attr title  "packets sent, count"
scalar SingleCell.ue[0].udp 	sentPk:sum(packetBytes) 	750
attr interpolationmode  none
attr source  sentPk
attr title  "packets sent, sum(packetBytes)"
scalar SingleCell.ue[0].nic.pdcpRrc 	sentPacketToLowerLayer:count 	50
attr interpolationmode  none
attr source  sentPacketToLowerLayer
scalar SingleCell.ue[0].nic.pdcpRrc 	sentPacketToLowerLayer:sum(packetBytes) 	1800
attr interpolationmode  none
attr source  sentPacketToLowerLayer
scalar SingleCell.ue[0].nic.pdcpRrc 	sentPacketToUpperLayer:count 	21029
attr interpolationmode  none
attr source  sentPacketToUpperLayer
scalar SingleCell.ue[0].nic.pdcpRrc 	sentPacketToUpperLayer:sum(packetBytes) 	21589015
attr interpolationmode  none
attr source  sentPacketToUpperLayer
scalar SingleCell.ue[0].nic.pdcpRrc 	receivedPacketFromLowerLayer:count 	21029
attr interpolationmode  none
attr source  receivedPacketFromLowerLayer
scalar SingleCell.ue[0].nic.pdcpRrc 	receivedPacketFromLowerLayer:sum(packetBytes) 	21610044
attr interpolationmode  none
attr source  receivedPacketFromLowerLayer
scalar SingleCell.ue[0].nic.pdcpRrc 	receivedPacketFromUpperLayer:count 	50
attr interpolationmode  none
attr source  receivedPacketFromUpperLayer
scalar SingleCell.ue[0].nic.pdcpRrc 	receivedPacketFromUpperLayer:sum(packetBytes) 	1750
attr interpolationmode  none
attr source  receivedPacketFromUpperLayer
scalar SingleCell.ue[0].nic.rlc.um 	rlcPduPacketLossDl:lteAvg 	0
attr source  rlcPduPacketLossDl
attr title  "rlc Packet Loss, lteAvg"
attr unit  ""
scalar SingleCell.ue[0].nic.rlc.um 	rlcPduPacketLossUl:lteAvg 	0
attr source  rlcPduPacketLossUl
attr title  "rlc Packet Loss, lteAvg"
attr unit  ""
scalar SingleCell.ue[0].nic.rlc.um 	rlcPacketLossTotal:lteAvg 	0.8626462059753
attr source  rlcPacketLossTotal
attr title  "rlc Packet Loss, lteAvg"
attr unit  ""
scalar SingleCell.ue[0].nic.rlc.um 	rlcPacketLossDl:lteAvg 	0.86292735390933
attr source  rlcPacketLossDl
attr title  "rlc Packet Loss, lteAvg"
attr unit  ""
scalar SingleCell.ue[0].nic.rlc.um 	rlcPacketLossUl:lteAvg 	0
attr source  rlcPacketLossUl
attr title  "rlc Packet Loss, lteAvg"
attr unit  ""
scalar SingleCell.ue[0].nic.rlc.um 	rlcPduThroughputUl:lteRate 	9.6468544183603
attr source  rlcPduThroughputUl
attr title  "Throughput at the rlc layer UL, lteRate"
attr unit  Bps
scalar SingleCell.ue[0].nic.rlc.um 	rlcPduDelayUl:lteAvg 	0.004
attr source  rlcPduDelayUl
attr title  "Delay at the rlc layer UL, lteAvg"
attr unit  s
scalar SingleCell.ue[0].nic.rlc.um 	rlcPduThroughputDl:lteRate 	109343.64377459
attr source  rlcPduThroughputDl
attr title  "Throughput at the rlc layer DL, lteRate"
attr unit  Bps
scalar SingleCell.ue[0].nic.rlc.um 	rlcPduDelayDl:lteAvg 	0.0040055993363751
attr source  rlcPduDelayDl
attr title  "Delay at the rlc layer UL, lteAvg"
attr unit  s
scalar SingleCell.ue[0].nic.rlc.um 	rlcThroughputUl:lteRate 	9.0912764152087
attr source  rlcThroughputUl
attr title  "Throughput at the rlc layer UL, lteRate"
attr unit  Bps
scalar SingleCell.ue[0].nic.rlc.um 	rlcDelayUl:lteAvg 	0.00602
attr source  rlcDelayUl
attr title  "Delay at the rlc layer UL, lteAvg"
attr unit  s
scalar SingleCell.ue[0].nic.rlc.um 	rlcThroughputDl:lteRate 	109148.80269917
attr source  rlcThroughputDl
attr title  "Throughput at the rlc layer DL, lteRate"
attr unit  Bps
scalar SingleCell.ue[0].nic.rlc.um 	rlcDelayDl:lteAvg 	0.0050045881469196
attr source  rlcDelayDl
attr title  "Delay at the rlc layer UL, lteAvg"
attr unit  s
scalar SingleCell.ue[0].nic.mac 	measuredItbs:mean 	-nan
attr source  measuredItbs
attr title  "TBS index, mean"
attr unit  ""
scalar SingleCell.ue[0].nic.mac 	harqErrorRate_4th_D2D:mean 	-nan
attr source  harqErrorRate_4th_D2D
attr title  "Harq Error Rate D2D, mean"
attr unit  ""
scalar SingleCell.ue[0].nic.mac 	harqErrorRate_4th_Dl:mean 	-nan
attr source  harqErrorRate_4th_Dl
attr title  "Harq Error Rate Dl, mean"
attr unit  ""
scalar SingleCell.ue[0].nic.mac 	harqErrorRate_4th_Ul:mean 	-nan
attr source  harqErrorRate_4th_Ul
attr title  "Harq Error Rate Dl, mean"
attr unit  ""
scalar SingleCell.ue[0].nic.mac 	harqErrorRate_3rd_D2D:mean 	-nan
attr source  harqErrorRate_3rd_D2D
attr title  "Harq Error Rate D2D, mean"
attr unit  ""
scalar SingleCell.ue[0].nic.mac 	harqErrorRate_3rd_Dl:mean 	-nan
attr source  harqErrorRate_3rd_Dl
attr title  "Harq Error Rate Dl, mean"
attr unit  ""
scalar SingleCell.ue[0].nic.mac 	harqErrorRate_3rd_Ul:mean 	-nan
attr source  harqErrorRate_3rd_Ul
attr title  "Harq Error Rate Dl, mean"
attr unit  ""
scalar SingleCell.ue[0].nic.mac 	harqErrorRate_2nd_D2D:mean 	-nan
attr source  harqErrorRate_2nd_D2D
attr title  "Harq Error Rate D2D, mean"
attr unit  ""
scalar SingleCell.ue[0].nic.mac 	harqErrorRate_2nd_Dl:mean 	0
attr source  harqErrorRate_2nd_Dl
attr title  "Harq Error Rate Dl, mean"
attr unit  ""
scalar SingleCell.ue[0].nic.mac 	harqErrorRate_2nd_Ul:mean 	-nan
attr source  harqErrorRate_2nd_Ul
attr title  "Harq Error Rate Dl, mean"
attr unit  ""
scalar SingleCell.ue[0].nic.mac 	harqErrorRate_1st_D2D:mean 	-nan
attr source  harqErrorRate_1st_D2D
attr title  "Harq Error Rate D2D, mean"
attr unit  ""
scalar SingleCell.ue[0].nic.mac 	harqErrorRate_1st_Dl:mean 	0.00093322272915803
attr source  harqErrorRate_1st_Dl
attr title  "Harq Error Rate Dl, mean"
attr unit  ""
scalar SingleCell.ue[0].nic.mac 	harqErrorRate_1st_Ul:mean 	0
attr source  harqErrorRate_1st_Ul
attr title  "Harq Error Rate Dl, mean"
attr unit  ""
scalar SingleCell.ue[0].nic.mac 	harqErrorRateD2D:mean 	-nan
attr source  harqErrorRateD2D
attr title  "Harq Error Rate D2D, mean"
attr unit  ""
scalar SingleCell.ue[0].nic.mac 	harqErrorRateDl:mean 	0.00093235263648607
attr source  harqErrorRateDl
attr title  "Harq Error Rate Dl, mean"
attr unit  ""
scalar SingleCell.ue[0].nic.mac 	harqErrorRateUl:mean 	0
attr source  harqErrorRateUl
attr title  "Harq Error Rate Dl, mean"
attr unit  ""
scalar SingleCell.ue[0].nic.mac 	macPacketLossD2D:mean 	-nan
attr source  macPacketLossD2D
attr title  "Mac Packet Loss D2D, mean"
attr unit  ""
scalar SingleCell.ue[0].nic.mac 	macPacketLossDl:mean 	0
attr source  macPacketLossDl
attr title  "Mac Packet Loss, mean"
attr unit  ""
scalar SingleCell.ue[0].nic.mac 	macPacketLossUl:mean 	0
attr source  macPacketLossUl
attr title  "Mac Packet Loss, mean"
attr unit  ""
scalar SingleCell.ue[0].nic.mac 	macCellPacketLossD2D:mean 	-nan
attr source  macCellPacketLossD2D
attr title  "Mac Cell Packet Loss D2D, mean"
attr unit  ""
scalar SingleCell.ue[0].nic.mac 	macCellPacketLossUl:mean 	-nan
attr source  macCellPacketLossUl
attr title  "Mac Cell Packet Loss, mean"
attr unit  ""
scalar SingleCell.ue[0].nic.mac 	macCellPacketLossDl:mean 	-nan
attr source  macCellPacketLossDl
attr title  "Mac Cell Packet Loss, mean"
attr unit  ""
scalar SingleCell.ue[0].nic.mac 	macThroughputDl:lteRate 	109538.48485002
attr source  macThroughputDl
attr title  "Throughput at the MAC layer DL, lteRate"
attr unit  Bps
scalar SingleCell.ue[0].nic.mac 	macDelayDl:lteAvg 	0.0040055993363751
attr source  macDelayDl
attr title  "Delay at the MAC layer UL, lteAvg"
attr unit  s
scalar SingleCell.ue[0].nic.mac 	sentPacketToLowerLayer:count 	19378
attr interpolationmode  none
attr source  sentPacketToLowerLayer
scalar SingleCell.ue[0].nic.mac 	sentPacketToLowerLayer:sum(packetBytes) 	2020
attr interpolationmode  none
attr source  sentPacketToLowerLayer
scalar SingleCell.ue[0].nic.mac 	sentPacketToUpperLayer:count 	19350
attr interpolationmode  none
attr source  sentPacketToUpperLayer
scalar SingleCell.ue[0].nic.mac 	sentPacketToUpperLayer:sum(packetBytes) 	21648620
attr interpolationmode  none
attr source  sentPacketToUpperLayer
scalar SingleCell.ue[0].nic.mac 	receivedPacketFromLowerLayer:count 	185766
attr interpolationmode  none
attr source  receivedPacketFromLowerLayer
scalar SingleCell.ue[0].nic.mac 	receivedPacketFromLowerLayer:sum(packetBytes) 	21710935
attr interpolationmode  none
attr source  receivedPacketFromLowerLayer
scalar SingleCell.ue[0].nic.mac 	receivedPacketFromUpperLayer:count 	112
attr interpolationmode  none
attr source  receivedPacketFromUpperLayer
scalar SingleCell.ue[0].nic.mac 	receivedPacketFromUpperLayer:sum(packetBytes) 	3710
attr interpolationmode  none
attr source  receivedPacketFromUpperLayer
scalar SingleCell.ue[0].nic.mac 	averageCqiDl:lteAvg 	14.993991505232
attr source  averageCqiDl
attr title  "Average Cqi reported in DL, lteAvg"
attr unit  cqi
scalar SingleCell.ue[0].networkLayer.arp 	failedARPResolution:count 	0
attr title  "ARP failed resolutions, count"
scalar SingleCell.ue[0].networkLayer.arp 	completedARPResolution:count 	0
attr title  "ARP completed resolutions, count"
scalar SingleCell.ue[0].networkLayer.arp 	initiatedARPResolution:count 	0
attr title  "ARP initiated resolutions, count"
scalar SingleCell.ue[0].networkLayer.arp 	sentReply:count 	0
attr title  "ARP replies sent, count"
scalar SingleCell.ue[0].networkLayer.arp 	sentReq:count 	0
attr title  "ARP request sent, count"
statistic SingleCell.ue[1].udpApp[0] 	endToEndDelay:stats
field count 23
field mean 8.0495652173913
field stddev 0.0642925317923
field sum 185.14
field sqrsum 1490.387442
field min 8.005
field max 8.205
attr interpolationmode  none
attr source  segmentCompletionTime
attr title  "end-to-end delay, stats"
statistic SingleCell.ue[1].udpApp[1] 	endToEndDelay:stats
field count 23
field mean 8.0357826086957
field stddev 0.050356868739554
field sum 184.823
field sqrsum 1485.253237
field min 8.005
field max 8.183
attr interpolationmode  none
attr source  segmentCompletionTime
attr title  "end-to-end delay, stats"
scalar SingleCell.ue[1].udp 	droppedPkBadChecksum:count 	0
attr interpolationmode  none
attr title  "packets dropped (checksum error), count"
scalar SingleCell.ue[1].udp 	droppedPkWrongPort:count 	0
attr interpolationmode  none
attr title  "packets dropped (wrong port), count"
scalar SingleCell.ue[1].udp 	passedUpPk:count 	20028
attr interpolationmode  none
attr title  "packets passed up, count"
scalar SingleCell.ue[1].udp 	rcvdPk:count 	20028
attr interpolationmode  none
attr source  rcvdPk
attr title  "packets received, count"
scalar SingleCell.ue[1].udp 	rcvdPk:sum(packetBytes) 	20160420
attr interpolationmode  none
attr source  rcvdPk
attr title  "packets received, sum(packetBytes)"
scalar SingleCell.ue[1].udp 	sentPk:count 	48
attr interpolationmode  none
attr source  sentPk
attr title  "packets sent, count"
scalar SingleCell.ue[1].udp 	sentPk:sum(packetBytes) 	720
attr interpolationmode  none
attr source  sentPk
attr title  "packets sent, sum(packetBytes)"
scalar SingleCell.ue[1].nic.pdcpRrc 	sentPacketToLowerLayer:count 	48
attr interpolationmode  none
attr source  sentPacketToLowerLayer
scalar SingleCell.ue[1].nic.pdcpRrc 	sentPacketToLowerLayer:sum(packetBytes) 	1728
attr interpolationmode  none
attr source  sentPacketToLowerLayer
scalar SingleCell.ue[1].nic.pdcpRrc 	sentPacketToUpperLayer:count 	20028
attr interpolationmode  none
attr source  sentPacketToUpperLayer
scalar SingleCell.ue[1].nic.pdcpRrc 	sentPacketToUpperLayer:sum(packetBytes) 	20560980
attr interpolationmode  none
attr source  sentPacketToUpperLayer
scalar SingleCell.ue[1].nic.pdcpRrc 	receivedPacketFromLowerLayer:count 	20028
attr interpolationmode  none
attr source  receivedPacketFromLowerLayer
scalar SingleCell.ue[1].nic.pdcpRrc 	receivedPacketFromLowerLayer:sum(packetBytes) 	20581008
attr interpolationmode  none
attr source  receivedPacketFromLowerLayer
scalar SingleCell.ue[1].nic.pdcpRrc 	receivedPacketFromUpperLayer:count 	48
attr interpolationmode  none
attr source  receivedPacketFromUpperLayer
scalar SingleCell.ue[1].nic.pdcpRrc 	receivedPacketFromUpperLayer:sum(packetBytes) 	1680
attr interpolationmode  none
attr source  receivedPacketFromUpperLayer
scalar SingleCell.ue[1].nic.rlc.um 	rlcPduPacketLossDl:lteAvg 	0
attr source  rlcPduPacketLossDl
attr title  "rlc Packet Loss, lteAvg"
attr unit  ""
scalar SingleCell.ue[1].nic.rlc.um 	rlcPduPacketLossUl:lteAvg 	0
attr source  rlcPduPacketLossUl
attr title  "rlc Packet Loss, lteAvg"
attr unit  ""
scalar SingleCell.ue[1].nic.rlc.um 	rlcPacketLossTotal:lteAvg 	0.87194958604942
attr source  rlcPacketLossTotal
attr title  "rlc Packet Loss, lteAvg"
attr unit  ""
scalar SingleCell.ue[1].nic.rlc.um 	rlcPacketLossDl:lteAvg 	0.87221662179234
attr source  rlcPacketLossDl
attr title  "rlc Packet Loss, lteAvg"
attr unit  ""
scalar SingleCell.ue[1].nic.rlc.um 	rlcPacketLossUl:lteAvg 	0
attr source  rlcPacketLossUl
attr title  "rlc Packet Loss, lteAvg"
attr unit  ""
scalar SingleCell.ue[1].nic.rlc.um 	rlcPduThroughputUl:lteRate 	10.298310566407
attr source  rlcPduThroughputUl
attr title  "Throughput at the rlc layer UL, lteRate"
attr unit  Bps
scalar SingleCell.ue[1].nic.rlc.um 	rlcPduDelayUl:lteAvg 	0.0042307692307692
attr source  rlcPduDelayUl
attr title  "Delay at the rlc layer UL, lteAvg"
attr unit  s
scalar SingleCell.ue[1].nic.rlc.um 	rlcPduThroughputDl:lteRate 	109671.91348338
attr source  rlcPduThroughputDl
attr title  "Throughput at the rlc layer DL, lteRate"
attr unit  Bps
scalar SingleCell.ue[1].nic.rlc.um 	rlcPduDelayDl:lteAvg 	0.0040033439224208
attr source  rlcPduDelayDl
attr title  "Delay at the rlc layer UL, lteAvg"
attr unit  s
scalar SingleCell.ue[1].nic.rlc.um 	rlcThroughputUl:lteRate 	9.1918805055534
attr source  rlcThroughputUl
attr title  "Throughput at the rlc layer UL, lteRate"
attr unit  Bps
scalar SingleCell.ue[1].nic.rlc.um 	rlcDelayUl:lteAvg 	0.0401875
attr source  rlcDelayUl
attr title  "Delay at the rlc layer UL, lteAvg"
attr unit  s
scalar SingleCell.ue[1].nic.rlc.um 	rlcThroughputDl:lteRate 	109481.01730439
attr source  rlcThroughputDl
attr title  "Throughput at the rlc layer DL, lteRate"
attr unit  Bps
scalar SingleCell.ue[1].nic.rlc.um 	rlcDelayDl:lteAvg 	0.005001190447013
attr source  rlcDelayDl
attr title  "Delay at the rlc layer UL, lteAvg"
attr unit  s
scalar SingleCell.ue[1].nic.mac 	measuredItbs:mean 	-nan
attr source  measuredItbs
attr title  "TBS index, mean"
attr unit  ""
scalar SingleCell.ue[1].nic.mac 	harqErrorRate_4th_D2D:mean 	-nan
attr source  harqErrorRate_4th_D2D
attr title  "Harq Error Rate D2D, mean"
attr unit  ""
scalar SingleCell.ue[1].nic.mac 	harqErrorRate_4th_Dl:mean 	-nan
attr source  harqErrorRate_4th_Dl
attr title  "Harq Error Rate Dl, mean"
attr unit  ""
scalar SingleCell.ue[1].nic.mac 	harqErrorRate_4th_Ul:mean 	-nan
attr source  harqErrorRate_4th_Ul
attr title  "Harq Error Rate Dl, mean"
attr unit  ""
scalar SingleCell.ue[1].nic.mac 	harqErrorRate_3rd_D2D:mean 	-nan
attr source  harqErrorRate_3rd_D2D
attr title  "Harq Error Rate D2D, mean"
attr unit  ""
scalar SingleCell.ue[1].nic.mac 	harqErrorRate_3rd_Dl:mean 	-nan
attr source  harqErrorRate_3rd_Dl
attr title  "Harq Error Rate Dl, mean"
attr unit  ""
scalar SingleCell.ue[1].nic.mac 	harqErrorRate_3rd_Ul:mean 	-nan
attr source  harqErrorRate_3rd_Ul
attr title  "Harq Error Rate Dl, mean"
attr unit  ""
scalar SingleCell.ue[1].nic.mac 	harqErrorRate_2nd_D2D:mean 	-nan
attr source  harqErrorRate_2nd_D2D
attr title  "Harq Error Rate D2D, mean"
attr unit  ""
scalar SingleCell.ue[1].nic.mac 	harqErrorRate_2nd_Dl:mean 	0
attr source  harqErrorRate_2nd_Dl
attr title  "Harq Error Rate Dl, mean"
attr unit  ""
scalar SingleCell.ue[1].nic.mac 	harqErrorRate_2nd_Ul:mean 	0
attr source  harqErrorRate_2nd_Ul
attr title  "Harq Error Rate Dl, mean"
attr unit  ""
scalar SingleCell.ue[1].nic.mac 	harqErrorRate_1st_D2D:mean 	-nan
attr source  harqErrorRate_1st_D2D
attr title  "Harq Error Rate D2D, mean"
attr unit  ""
scalar SingleCell.ue[1].nic.mac 	harqErrorRate_1st_Dl:mean 	0.00055732040349997
attr source  harqErrorRate_1st_Dl
attr title  "Harq Error Rate Dl, mean"
attr unit  ""
scalar SingleCell.ue[1].nic.mac 	harqErrorRate_1st_Ul:mean 	0.02
attr source  harqErrorRate_1st_Ul
attr title  "Harq Error Rate Dl, mean"
attr unit  ""
scalar SingleCell.ue[1].nic.mac 	harqErrorRateD2D:mean 	-nan
attr source  harqErrorRateD2D
attr title  "Harq Error Rate D2D, mean"
attr unit  ""
scalar SingleCell.ue[1].nic.mac 	harqErrorRateDl:mean 	0.00055700997047847
attr source  harqErrorRateDl
attr title  "Harq Error Rate Dl, mean"
attr unit  ""
scalar SingleCell.ue[1].nic.mac 	harqErrorRateUl:mean 	0.019607843137255
attr source  harqErrorRateUl
attr title  "Harq Error Rate Dl, mean"
attr unit  ""
scalar SingleCell.ue[1].nic.mac 	macPacketLossD2D:mean 	-nan
attr source  macPacketLossD2D
attr title  "Mac Packet Loss D2D, mean"
attr unit  ""
scalar SingleCell.ue[1].nic.mac 	macPacketLossDl:mean 	0
attr source  macPacketLossDl
attr title  "Mac Packet Loss, mean"
attr unit  ""
scalar SingleCell.ue[1].nic.mac 	macPacketLossUl:mean 	0
attr source  macPacketLossUl
attr title  "Mac Packet Loss, mean"
attr unit  ""
scalar SingleCell.ue[1].nic.mac 	macCellPacketLossD2D:mean 	-nan
attr source  macCellPacketLossD2D
attr title  "Mac Cell Packet Loss D2D, mean"
attr unit  ""
scalar SingleCell.ue[1].nic.mac 	macCellPacketLossUl:mean 	-nan
attr source  macCellPacketLossUl
attr title  "Mac Cell Packet Loss, mean"
attr unit  ""
scalar SingleCell.ue[1].nic.mac 	macCellPacketLossDl:mean 	-nan
attr source  macCellPacketLossDl
attr title  "Mac Cell Packet Loss, mean"
attr unit  ""
scalar SingleCell.ue[1].nic.mac 	macThroughputDl:lteRate 	109862.80966237
attr source  macThroughputDl
attr title  "Throughput at the MAC layer DL, lteRate"
attr unit  Bps
scalar SingleCell.ue[1].nic.mac 	macDelayDl:lteAvg 	0.0040033439224208
attr source  macDelayDl
attr title  "Delay at the MAC layer UL, lteAvg"
attr unit  s
scalar SingleCell.ue[1].nic.mac 	sentPacketToLowerLayer:count 	18658
attr interpolationmode  none
attr source  sentPacketToLowerLayer
scalar SingleCell.ue[1].nic.mac 	sentPacketToLowerLayer:sum(packetBytes) 	2708
attr interpolationmode  none
attr source  sentPacketToLowerLayer
scalar SingleCell.ue[1].nic.mac 	sentPacketToUpperLayer:count 	18293
attr interpolationmode  none
attr source  sentPacketToUpperLayer
scalar SingleCell.ue[1].nic.mac 	sentPacketToUpperLayer:sum(packetBytes) 	20616894
attr interpolationmode  none
attr source  sentPacketToUpperLayer
scalar SingleCell.ue[1].nic.mac 	receivedPacketFromLowerLayer:count 	24585
attr interpolationmode  none
attr source  receivedPacketFromLowerLayer
scalar SingleCell.ue[1].nic.mac 	receivedPacketFromLowerLayer:sum(packetBytes) 	20663110
attr interpolationmode  none
attr source  receivedPacketFromLowerLayer
scalar SingleCell.ue[1].nic.mac 	receivedPacketFromUpperLayer:count 	398
attr interpolationmode  none
attr source  receivedPacketFromUpperLayer
scalar SingleCell.ue[1].nic.mac 	receivedPacketFromUpperLayer:sum(packetBytes) 	3664
attr interpolationmode  none
attr source  receivedPacketFromUpperLayer
scalar SingleCell.ue[1].nic.mac 	averageCqiDl:lteAvg 	14.995822425221
attr source  averageCqiDl
attr title  "Average Cqi reported in DL, lteAvg"
attr unit  cqi
scalar SingleCell.ue[1].networkLayer.arp 	failedARPResolution:count 	0
attr title  "ARP failed resolutions, count"
scalar SingleCell.ue[1].networkLayer.arp 	completedARPResolution:count 	0
attr title  "ARP completed resolutions, count"
scalar SingleCell.ue[1].networkLayer.arp 	initiatedARPResolution:count 	0
attr title  "ARP initiated resolutions, count"
scalar SingleCell.ue[1].networkLayer.arp 	sentReply:count 	0
attr title  "ARP replies sent, count"
scalar SingleCell.ue[1].networkLayer.arp 	sentReq:count 	0
attr title  "ARP request sent, count"
statistic SingleCell.ue[2].udpApp[0] 	endToEndDelay:stats
field count 16
field mean 8.0093125
field stddev 0.0043927022830619
field sum 128.149
field sqrsum 1026.385677
field min 8.002
field max 8.014
attr interpolationmode  none
attr source  segmentCompletionTime
attr title  "end-to-end delay, stats"
statistic SingleCell.ue[2].udpApp[1] 	endToEndDelay:stats
field count 16
field mean 8.0085625
field stddev 0.0042578359151225
field sum 128.137
field sqrsum 1026.193445
field min 8.002
field max 8.016
attr interpolationmode  none
attr source  segmentCompletionTime
attr title  "end-to-end delay, stats"
scalar SingleCell.ue[2].udp 	droppedPkBadChecksum:count 	0
attr interpolationmode  none
attr title  "packets dropped (checksum error), count"
scalar SingleCell.ue[2].udp 	droppedPkWrongPort:count 	0
attr interpolationmode  none
attr title  "packets dropped (wrong port), count"
scalar SingleCell.ue[2].udp 	passedUpPk:count 	19015
attr interpolationmode  none
attr title  "packets passed up, count"
scalar SingleCell.ue[2].udp 	rcvdPk:count 	19015
attr interpolationmode  none
attr source  rcvdPk
attr title  "packets received, count"
scalar SingleCell.ue[2].udp 	rcvdPk:sum(packetBytes) 	19152225
attr interpolationmode  none
attr source  rcvdPk
attr title  "packets received, sum(packetBytes)"
scalar SingleCell.ue[2].udp 	sentPk:count 	34
attr interpolationmode  none
attr source  sentPk
attr title  "packets sent, count"
scalar SingleCell.ue[2].udp 	sentPk:sum(packetBytes) 	510
attr interpolationmode  none
attr source  sentPk
attr title  "packets sent, sum(packetBytes)"
scalar SingleCell.ue[2].nic.pdcpRrc 	sentPacketToLowerLayer:count 	34
attr interpolationmode  none
attr source  sentPacketToLowerLayer
scalar SingleCell.ue[2].nic.pdcpRrc 	sentPacketToLowerLayer:sum(packetBytes) 	1224
attr interpolationmode  none
attr source  sentPacketToLowerLayer
scalar SingleCell.ue[2].nic.pdcpRrc 	sentPacketToUpperLayer:count 	19015
attr interpolationmode  none
attr source  sentPacketToUpperLayer
scalar SingleCell.ue[2].nic.pdcpRrc 	sentPacketToUpperLayer:sum(packetBytes) 	19532525
attr interpolationmode  none
attr source  sentPacketToUpperLayer
scalar SingleCell.ue[2].nic.pdcpRrc 	receivedPacketFromLowerLayer:count 	19015
attr interpolationmode  none
attr source  receivedPacketFromLowerLayer
scalar SingleCell.ue[2].nic.pdcpRrc 	receivedPacketFromLowerLayer:sum(packetBytes) 	19551540
attr interpolationmode  none
attr source  receivedPacketFromLowerLayer
scalar SingleCell.ue[2].nic.pdcpRrc 	receivedPacketFromUpperLayer:count 	34
attr interpolationmode  none
attr source  receivedPacketFromUpperLayer
scalar SingleCell.ue[2].nic.pdcpRrc 	receivedPacketFromUpperLayer:sum(packetBytes) 	1190
attr interpolationmode  none
attr source  receivedPacketFromUpperLayer
scalar SingleCell.ue[2].nic.rlc.um 	rlcPduPacketLossDl:lteAvg 	0
attr source  rlcPduPacketLossDl
attr title  "rlc Packet Loss, lteAvg"
attr unit  ""
scalar SingleCell.ue[2].nic.rlc.um 	rlcPduPacketLossUl:lteAvg 	0
attr source  rlcPduPacketLossUl
attr title  "rlc Packet Loss, lteAvg"
attr unit  ""
scalar SingleCell.ue[2].nic.rlc.um 	rlcPacketLossTotal:lteAvg 	0.87973812470012
attr source  rlcPacketLossTotal
attr title  "rlc Packet Loss, lteAvg"
attr unit  ""
scalar SingleCell.ue[2].nic.rlc.um 	rlcPacketLossDl:lteAvg 	0.87992700269004
attr source  rlcPacketLossDl
attr title  "rlc Packet Loss, lteAvg"
attr unit  ""
scalar SingleCell.ue[2].nic.rlc.um 	rlcPacketLossUl:lteAvg 	0
attr source  rlcPacketLossUl
attr title  "rlc Packet Loss, lteAvg"
attr unit  ""
scalar SingleCell.ue[2].nic.rlc.um 	rlcPduThroughputUl:lteRate 	9.9698442981107
attr source  rlcPduThroughputUl
attr title  "Throughput at the rlc layer UL, lteRate"
attr unit  Bps
scalar SingleCell.ue[2].nic.rlc.um 	rlcPduDelayUl:lteAvg 	0.004
attr source  rlcPduDelayUl
attr title  "Delay at the rlc layer UL, lteAvg"
attr unit  s
scalar SingleCell.ue[2].nic.rlc.um 	rlcPduThroughputDl:lteRate 	150690.62290844
attr source  rlcPduThroughputDl
attr title  "Throughput at the rlc layer DL, lteRate"
attr unit  Bps
scalar SingleCell.ue[2].nic.rlc.um 	rlcPduDelayDl:lteAvg 	0.0040085993054405
attr source  rlcPduDelayDl
attr title  "Delay at the rlc layer UL, lteAvg"
attr unit  s
scalar SingleCell.ue[2].nic.rlc.um 	rlcThroughputUl:lteRate 	9.4159640593267
attr source  rlcThroughputUl
attr title  "Throughput at the rlc layer UL, lteRate"
attr unit  Bps
[...]
attr interpolationmode  none
attr title  "packets dropped (wrong port), count"
scalar SingleCell.ue[8].udp 	passedUpPk:count 	19354
attr interpolationmode  none
attr title  "packets passed up, count"
scalar SingleCell.ue[8].udp 	rcvdPk:count 	19354
attr interpolationmode  none
attr source  rcvdPk
attr title  "packets received, count"
scalar SingleCell.ue[8].udp 	rcvdPk:sum(packetBytes) 	19508832
attr interpolationmode  none
attr source  rcvdPk
attr title  "packets received, sum(packetBytes)"
scalar SingleCell.ue[8].udp 	sentPk:count 	20
attr interpolationmode  none
attr source  sentPk
attr title  "packets sent, count"
scalar SingleCell.ue[8].udp 	sentPk:sum(packetBytes) 	300
attr interpolationmode  none
attr source  sentPk
attr title  "packets sent, sum(packetBytes)"
scalar SingleCell.ue[8].nic.pdcpRrc 	sentPacketToLowerLayer:count 	20
attr interpolationmode  none
attr source  sentPacketToLowerLayer
scalar SingleCell.ue[8].nic.pdcpRrc 	sentPacketToLowerLayer:sum(packetBytes) 	720
attr interpolationmode  none
attr source  sentPacketToLowerLayer
scalar SingleCell.ue[8].nic.pdcpRrc 	sentPacketToUpperLayer:count 	19354
attr interpolationmode  none
attr source  sentPacketToUpperLayer
scalar SingleCell.ue[8].nic.pdcpRrc 	sentPacketToUpperLayer:sum(packetBytes) 	19895912
attr interpolationmode  none
attr source  sentPacketToUpperLayer
scalar SingleCell.ue[8].nic.pdcpRrc 	receivedPacketFromLowerLayer:count 	19354
attr interpolationmode  none
attr source  receivedPacketFromLowerLayer
scalar SingleCell.ue[8].nic.pdcpRrc 	receivedPacketFromLowerLayer:sum(packetBytes) 	19915266
attr interpolationmode  none
attr source  receivedPacketFromLowerLayer
scalar SingleCell.ue[8].nic.pdcpRrc 	receivedPacketFromUpperLayer:count 	20
attr interpolationmode  none
attr source  receivedPacketFromUpperLayer
scalar SingleCell.ue[8].nic.pdcpRrc 	receivedPacketFromUpperLayer:sum(packetBytes) 	700
attr interpolationmode  none
attr source  receivedPacketFromUpperLayer
scalar SingleCell.ue[8].nic.rlc.um 	rlcPduPacketLossDl:lteAvg 	0
attr source  rlcPduPacketLossDl
attr title  "rlc Packet Loss, lteAvg"
attr unit  ""
scalar SingleCell.ue[8].nic.rlc.um 	rlcPduPacketLossUl:lteAvg 	0
attr source  rlcPduPacketLossUl
attr title  "rlc Packet Loss, lteAvg"
attr unit  ""
scalar SingleCell.ue[8].nic.rlc.um 	rlcPacketLossTotal:lteAvg 	0.95231484899948
attr source  rlcPacketLossTotal
attr title  "rlc Packet Loss, lteAvg"
attr unit  ""
scalar SingleCell.ue[8].nic.rlc.um 	rlcPacketLossDl:lteAvg 	0.95236172988407
attr source  rlcPacketLossDl
attr title  "rlc Packet Loss, lteAvg"
attr unit  ""
scalar SingleCell.ue[8].nic.rlc.um 	rlcPacketLossUl:lteAvg 	0
attr source  rlcPacketLossUl
attr title  "rlc Packet Loss, lteAvg"
attr unit  ""
scalar SingleCell.ue[8].nic.rlc.um 	rlcPduThroughputUl:lteRate 	16.564306719747
attr source  rlcPduThroughputUl
attr title  "Throughput at the rlc layer UL, lteRate"
attr unit  Bps
scalar SingleCell.ue[8].nic.rlc.um 	rlcPduDelayUl:lteAvg 	0.0053333333333333
attr source  rlcPduDelayUl
attr title  "Delay at the rlc layer UL, lteAvg"
attr unit  s
scalar SingleCell.ue[8].nic.rlc.um 	rlcPduThroughputDl:lteRate 	399217.75839302
attr source  rlcPduThroughputDl
attr title  "Throughput at the rlc layer DL, lteRate"
attr unit  Bps
scalar SingleCell.ue[8].nic.rlc.um 	rlcPduDelayDl:lteAvg 	0.00404308460818
attr source  rlcPduDelayDl
attr title  "Delay at the rlc layer UL, lteAvg"
attr unit  s
scalar SingleCell.ue[8].nic.rlc.um 	rlcThroughputUl:lteRate 	14.403744973693
attr source  rlcThroughputUl
attr title  "Throughput at the rlc layer UL, lteRate"
attr unit  Bps
scalar SingleCell.ue[8].nic.rlc.um 	rlcDelayUl:lteAvg 	0.1113
attr source  rlcDelayUl
attr title  "Delay at the rlc layer UL, lteAvg"
attr unit  s
scalar SingleCell.ue[8].nic.rlc.um 	rlcThroughputDl:lteRate 	398448.76155416
attr source  rlcThroughputDl
attr title  "Throughput at the rlc layer DL, lteRate"
attr unit  Bps
scalar SingleCell.ue[8].nic.rlc.um 	rlcDelayDl:lteAvg 	0.0050750488158303
attr source  rlcDelayDl
attr title  "Delay at the rlc layer UL, lteAvg"
attr unit  s
scalar SingleCell.ue[8].nic.mac 	measuredItbs:mean 	-nan
attr source  measuredItbs
attr title  "TBS index, mean"
attr unit  ""
scalar SingleCell.ue[8].nic.mac 	harqErrorRate_4th_D2D:mean 	-nan
attr source  harqErrorRate_4th_D2D
attr title  "Harq Error Rate D2D, mean"
attr unit  ""
scalar SingleCell.ue[8].nic.mac 	harqErrorRate_4th_Dl:mean 	-nan
attr source  harqErrorRate_4th_Dl
attr title  "Harq Error Rate Dl, mean"
attr unit  ""
scalar SingleCell.ue[8].nic.mac 	harqErrorRate_4th_Ul:mean 	-nan
attr source  harqErrorRate_4th_Ul
attr title  "Harq Error Rate Dl, mean"
attr unit  ""
scalar SingleCell.ue[8].nic.mac 	harqErrorRate_3rd_D2D:mean 	-nan
attr source  harqErrorRate_3rd_D2D
attr title  "Harq Error Rate D2D, mean"
attr unit  ""
scalar SingleCell.ue[8].nic.mac 	harqErrorRate_3rd_Dl:mean 	0
attr source  harqErrorRate_3rd_Dl
attr title  "Harq Error Rate Dl, mean"
attr unit  ""
scalar SingleCell.ue[8].nic.mac 	harqErrorRate_3rd_Ul:mean 	-nan
attr source  harqErrorRate_3rd_Ul
attr title  "Harq Error Rate Dl, mean"
attr unit  ""
scalar SingleCell.ue[8].nic.mac 	harqErrorRate_2nd_D2D:mean 	-nan
attr source  harqErrorRate_2nd_D2D
attr title  "Harq Error Rate D2D, mean"
attr unit  ""
scalar SingleCell.ue[8].nic.mac 	harqErrorRate_2nd_Dl:mean 	0.014705882352941
attr source  harqErrorRate_2nd_Dl
attr title  "Harq Error Rate Dl, mean"
attr unit  ""
scalar SingleCell.ue[8].nic.mac 	harqErrorRate_2nd_Ul:mean 	0
attr source  harqErrorRate_2nd_Ul
attr title  "Harq Error Rate Dl, mean"
attr unit  ""
scalar SingleCell.ue[8].nic.mac 	harqErrorRate_1st_D2D:mean 	-nan
attr source  harqErrorRate_1st_D2D
attr title  "Harq Error Rate D2D, mean"
attr unit  ""
scalar SingleCell.ue[8].nic.mac 	harqErrorRate_1st_Dl:mean 	0.0070766989280883
attr source  harqErrorRate_1st_Dl
attr title  "Harq Error Rate Dl, mean"
attr unit  ""
scalar SingleCell.ue[8].nic.mac 	harqErrorRate_1st_Ul:mean 	0.060240963855422
attr source  harqErrorRate_1st_Ul
attr title  "Harq Error Rate Dl, mean"
attr unit  ""
scalar SingleCell.ue[8].nic.mac 	harqErrorRateD2D:mean 	-nan
attr source  harqErrorRateD2D
attr title  "Harq Error Rate D2D, mean"
attr unit  ""
scalar SingleCell.ue[8].nic.mac 	harqErrorRateDl:mean 	0.0071295722256665
attr source  harqErrorRateDl
attr title  "Harq Error Rate Dl, mean"
attr unit  ""
scalar SingleCell.ue[8].nic.mac 	harqErrorRateUl:mean 	0.056818181818182
attr source  harqErrorRateUl
attr title  "Harq Error Rate Dl, mean"
attr unit  ""
scalar SingleCell.ue[8].nic.mac 	macPacketLossD2D:mean 	-nan
attr source  macPacketLossD2D
attr title  "Mac Packet Loss D2D, mean"
attr unit  ""
scalar SingleCell.ue[8].nic.mac 	macPacketLossDl:mean 	0
attr source  macPacketLossDl
attr title  "Mac Packet Loss, mean"
attr unit  ""
scalar SingleCell.ue[8].nic.mac 	macPacketLossUl:mean 	0
attr source  macPacketLossUl
attr title  "Mac Packet Loss, mean"
attr unit  ""
scalar SingleCell.ue[8].nic.mac 	macCellPacketLossD2D:mean 	-nan
attr source  macCellPacketLossD2D
attr title  "Mac Cell Packet Loss D2D, mean"
attr unit  ""
scalar SingleCell.ue[8].nic.mac 	macCellPacketLossUl:mean 	-nan
attr source  macCellPacketLossUl
attr title  "Mac Cell Packet Loss, mean"
attr unit  ""
scalar SingleCell.ue[8].nic.mac 	macCellPacketLossDl:mean 	-nan
attr source  macCellPacketLossDl
attr title  "Mac Cell Packet Loss, mean"
attr unit  ""
scalar SingleCell.ue[8].nic.mac 	macThroughputDl:lteRate 	399986.75523188
attr source  macThroughputDl
attr title  "Throughput at the MAC layer DL, lteRate"
attr unit  Bps
scalar SingleCell.ue[8].nic.mac 	macDelayDl:lteAvg 	0.00404308460818
attr source  macDelayDl
attr title  "Delay at the MAC layer UL, lteAvg"
attr unit  s
scalar SingleCell.ue[8].nic.mac 	sentPacketToLowerLayer:count 	20211
attr interpolationmode  none
attr source  sentPacketToLowerLayer
scalar SingleCell.ue[8].nic.mac 	sentPacketToLowerLayer:sum(packetBytes) 	1987
attr interpolationmode  none
attr source  sentPacketToLowerLayer
scalar SingleCell.ue[8].nic.mac 	sentPacketToUpperLayer:count 	19633
attr interpolationmode  none
attr source  sentPacketToUpperLayer
scalar SingleCell.ue[8].nic.mac 	sentPacketToUpperLayer:sum(packetBytes) 	19953702
attr interpolationmode  none
attr source  sentPacketToUpperLayer
scalar SingleCell.ue[8].nic.mac 	receivedPacketFromLowerLayer:count 	20652
attr interpolationmode  none
attr source  receivedPacketFromLowerLayer
scalar SingleCell.ue[8].nic.mac 	receivedPacketFromLowerLayer:sum(packetBytes) 	20135563
attr interpolationmode  none
attr source  receivedPacketFromLowerLayer
scalar SingleCell.ue[8].nic.mac 	receivedPacketFromUpperLayer:count 	435
attr interpolationmode  none
attr source  receivedPacketFromUpperLayer
scalar SingleCell.ue[8].nic.mac 	receivedPacketFromUpperLayer:sum(packetBytes) 	1548
attr interpolationmode  none
attr source  receivedPacketFromUpperLayer
scalar SingleCell.ue[8].nic.mac 	averageCqiDl:lteAvg 	14.651495582993
attr source  averageCqiDl
attr title  "Average Cqi reported in DL, lteAvg"
attr unit  cqi
scalar SingleCell.ue[8].networkLayer.arp 	failedARPResolution:count 	0
attr title  "ARP failed resolutions, count"
scalar SingleCell.ue[8].networkLayer.arp 	completedARPResolution:count 	0
attr title  "ARP completed resolutions, count"
scalar SingleCell.ue[8].networkLayer.arp 	initiatedARPResolution:count 	0
attr title  "ARP initiated resolutions, count"
scalar SingleCell.ue[8].networkLayer.arp 	sentReply:count 	0
attr title  "ARP replies sent, count"
scalar SingleCell.ue[8].networkLayer.arp 	sentReq:count 	0
attr title  "ARP request sent, count"
statistic SingleCell.ue[9].udpApp[0] 	endToEndDelay:stats
field count 8
field mean 5.0145
field stddev 0.010583005244135
field sum 40.116
field sqrsum 201.162466
field min 5.008
field max 5.039
attr interpolationmode  none
attr source  segmentCompletionTime
attr title  "end-to-end delay, stats"
statistic SingleCell.ue[9].udpApp[1] 	endToEndDelay:stats
field count 8
field mean 5.0195
field stddev 0.015556349186041
field sum 40.156
field sqrsum 201.564736
field min 5.008
field max 5.044
attr interpolationmode  none
attr source  segmentCompletionTime
attr title  "end-to-end delay, stats"
scalar SingleCell.ue[9].udp 	droppedPkBadChecksum:count 	0
attr interpolationmode  none
attr title  "packets dropped (checksum error), count"
scalar SingleCell.ue[9].udp 	droppedPkWrongPort:count 	0
attr interpolationmode  none
attr title  "packets dropped (wrong port), count"
scalar SingleCell.ue[9].udp 	passedUpPk:count 	17740
attr interpolationmode  none
attr title  "packets passed up, count"
scalar SingleCell.ue[9].udp 	rcvdPk:count 	17740
attr interpolationmode  none
attr source  rcvdPk
attr title  "packets received, count"
scalar SingleCell.ue[9].udp 	rcvdPk:sum(packetBytes) 	17881920
attr interpolationmode  none
attr source  rcvdPk
attr title  "packets received, sum(packetBytes)"
scalar SingleCell.ue[9].udp 	sentPk:count 	18
attr interpolationmode  none
attr source  sentPk
attr title  "packets sent, count"
scalar SingleCell.ue[9].udp 	sentPk:sum(packetBytes) 	270
attr interpolationmode  none
attr source  sentPk
attr title  "packets sent, sum(packetBytes)"
scalar SingleCell.ue[9].nic.pdcpRrc 	sentPacketToLowerLayer:count 	18
attr interpolationmode  none
attr source  sentPacketToLowerLayer
scalar SingleCell.ue[9].nic.pdcpRrc 	sentPacketToLowerLayer:sum(packetBytes) 	648
attr interpolationmode  none
attr source  sentPacketToLowerLayer
scalar SingleCell.ue[9].nic.pdcpRrc 	sentPacketToUpperLayer:count 	17740
attr interpolationmode  none
attr source  sentPacketToUpperLayer
scalar SingleCell.ue[9].nic.pdcpRrc 	sentPacketToUpperLayer:sum(packetBytes) 	18236720
attr interpolationmode  none
attr source  sentPacketToUpperLayer
scalar SingleCell.ue[9].nic.pdcpRrc 	receivedPacketFromLowerLayer:count 	17740
attr interpolationmode  none
attr source  receivedPacketFromLowerLayer
scalar SingleCell.ue[9].nic.pdcpRrc 	receivedPacketFromLowerLayer:sum(packetBytes) 	18254460
attr interpolationmode  none
attr source  receivedPacketFromLowerLayer
scalar SingleCell.ue[9].nic.pdcpRrc 	receivedPacketFromUpperLayer:count 	18
attr interpolationmode  none
attr source  receivedPacketFromUpperLayer
scalar SingleCell.ue[9].nic.pdcpRrc 	receivedPacketFromUpperLayer:sum(packetBytes) 	630
attr interpolationmode  none
attr source  receivedPacketFromUpperLayer
scalar SingleCell.ue[9].nic.rlc.um 	rlcPduPacketLossDl:lteAvg 	0
attr source  rlcPduPacketLossDl
attr title  "rlc Packet Loss, lteAvg"
attr unit  ""
scalar SingleCell.ue[9].nic.rlc.um 	rlcPduPacketLossUl:lteAvg 	0
attr source  rlcPduPacketLossUl
attr title  "rlc Packet Loss, lteAvg"
attr unit  ""
scalar SingleCell.ue[9].nic.rlc.um 	rlcPacketLossTotal:lteAvg 	0.95629273383314
attr source  rlcPacketLossTotal
attr title  "rlc Packet Loss, lteAvg"
attr unit  ""
scalar SingleCell.ue[9].nic.rlc.um 	rlcPacketLossDl:lteAvg 	0.95633510224576
attr source  rlcPacketLossDl
attr title  "rlc Packet Loss, lteAvg"
attr unit  ""
scalar SingleCell.ue[9].nic.rlc.um 	rlcPacketLossUl:lteAvg 	0
attr source  rlcPacketLossUl
attr title  "rlc Packet Loss, lteAvg"
attr unit  ""
scalar SingleCell.ue[9].nic.rlc.um 	rlcPduThroughputUl:lteRate 	16.447368421053
attr source  rlcPduThroughputUl
attr title  "Throughput at the rlc layer UL, lteRate"
attr unit  Bps
scalar SingleCell.ue[9].nic.rlc.um 	rlcPduDelayUl:lteAvg 	0.004
attr source  rlcPduDelayUl
attr title  "Delay at the rlc layer UL, lteAvg"
attr unit  s
scalar SingleCell.ue[9].nic.rlc.um 	rlcPduThroughputDl:lteRate 	406243.58147909
attr source  rlcPduThroughputDl
attr title  "Throughput at the rlc layer DL, lteRate"
attr unit  Bps
scalar SingleCell.ue[9].nic.rlc.um 	rlcPduDelayDl:lteAvg 	0.0040045240339301
attr source  rlcPduDelayDl
attr title  "Delay at the rlc layer UL, lteAvg"
attr unit  s
scalar SingleCell.ue[9].nic.rlc.um 	rlcThroughputUl:lteRate 	14.402560455192
attr source  rlcThroughputUl
attr title  "Throughput at the rlc layer UL, lteRate"
attr unit  Bps
scalar SingleCell.ue[9].nic.rlc.um 	rlcDelayUl:lteAvg 	0.016666666666667
attr source  rlcDelayUl
attr title  "Delay at the rlc layer UL, lteAvg"
attr unit  s
scalar SingleCell.ue[9].nic.rlc.um 	rlcThroughputDl:lteRate 	405771.88965701
attr source  rlcThroughputDl
attr title  "Throughput at the rlc layer DL, lteRate"
attr unit  Bps
scalar SingleCell.ue[9].nic.rlc.um 	rlcDelayDl:lteAvg 	0.0050008857975186
attr source  rlcDelayDl
attr title  "Delay at the rlc layer UL, lteAvg"
attr unit  s
scalar SingleCell.ue[9].nic.mac 	measuredItbs:mean 	-nan
attr source  measuredItbs
attr title  "TBS index, mean"
attr unit  ""
scalar SingleCell.ue[9].nic.mac 	harqErrorRate_4th_D2D:mean 	-nan
attr source  harqErrorRate_4th_D2D
attr title  "Harq Error Rate D2D, mean"
attr unit  ""
scalar SingleCell.ue[9].nic.mac 	harqErrorRate_4th_Dl:mean 	-nan
attr source  harqErrorRate_4th_Dl
attr title  "Harq Error Rate Dl, mean"
attr unit  ""
scalar SingleCell.ue[9].nic.mac 	harqErrorRate_4th_Ul:mean 	-nan
attr source  harqErrorRate_4th_Ul
attr title  "Harq Error Rate Dl, mean"
attr unit  ""
scalar SingleCell.ue[9].nic.mac 	harqErrorRate_3rd_D2D:mean 	-nan
attr source  harqErrorRate_3rd_D2D
attr title  "Harq Error Rate D2D, mean"
attr unit  ""
scalar SingleCell.ue[9].nic.mac 	harqErrorRate_3rd_Dl:mean 	-nan
attr source  harqErrorRate_3rd_Dl
attr title  "Harq Error Rate Dl, mean"
attr unit  ""
scalar SingleCell.ue[9].nic.mac 	harqErrorRate_3rd_Ul:mean 	-nan
attr source  harqErrorRate_3rd_Ul
attr title  "Harq Error Rate Dl, mean"
attr unit  ""
scalar SingleCell.ue[9].nic.mac 	harqErrorRate_2nd_D2D:mean 	-nan
attr source  harqErrorRate_2nd_D2D
attr title  "Harq Error Rate D2D, mean"
attr unit  ""
scalar SingleCell.ue[9].nic.mac 	harqErrorRate_2nd_Dl:mean 	0
attr source  harqErrorRate_2nd_Dl
attr title  "Harq Error Rate Dl, mean"
attr unit  ""
scalar SingleCell.ue[9].nic.mac 	harqErrorRate_2nd_Ul:mean 	-nan
attr source  harqErrorRate_2nd_Ul
attr title  "Harq Error Rate Dl, mean"
attr unit  ""
scalar SingleCell.ue[9].nic.mac 	harqErrorRate_1st_D2D:mean 	-nan
attr source  harqErrorRate_1st_D2D
attr title  "Harq Error Rate D2D, mean"
attr unit  ""
scalar SingleCell.ue[9].nic.mac 	harqErrorRate_1st_Dl:mean 	0.000754076727307
attr source  harqErrorRate_1st_Dl
attr title  "Harq Error Rate Dl, mean"
attr unit  ""
scalar SingleCell.ue[9].nic.mac 	harqErrorRate_1st_Ul:mean 	0
attr source  harqErrorRate_1st_Ul
attr title  "Harq Error Rate Dl, mean"
attr unit  ""
scalar SingleCell.ue[9].nic.mac 	harqErrorRateD2D:mean 	-nan
attr source  harqErrorRateD2D
attr title  "Harq Error Rate D2D, mean"
attr unit  ""
scalar SingleCell.ue[9].nic.mac 	harqErrorRateDl:mean 	0.00075350852406518
attr source  harqErrorRateDl
attr title  "Harq Error Rate Dl, mean"
attr unit  ""
scalar SingleCell.ue[9].nic.mac 	harqErrorRateUl:mean 	0
attr source  harqErrorRateUl
attr title  "Harq Error Rate Dl, mean"
attr unit  ""
scalar SingleCell.ue[9].nic.mac 	macPacketLossD2D:mean 	-nan
attr source  macPacketLossD2D
attr title  "Mac Packet Loss D2D, mean"
attr unit  ""
scalar SingleCell.ue[9].nic.mac 	macPacketLossDl:mean 	0
attr source  macPacketLossDl
attr title  "Mac Packet Loss, mean"
attr unit  ""
scalar SingleCell.ue[9].nic.mac 	macPacketLossUl:mean 	0
attr source  macPacketLossUl
attr title  "Mac Packet Loss, mean"
attr unit  ""
scalar SingleCell.ue[9].nic.mac 	macCellPacketLossD2D:mean 	-nan
attr source  macCellPacketLossD2D
attr title  "Mac Cell Packet Loss D2D, mean"
attr unit  ""
scalar SingleCell.ue[9].nic.mac 	macCellPacketLossUl:mean 	-nan
attr source  macCellPacketLossUl
attr title  "Mac Cell Packet Loss, mean"
attr unit  ""
scalar SingleCell.ue[9].nic.mac 	macCellPacketLossDl:mean 	-nan
attr source  macCellPacketLossDl
attr title  "Mac Cell Packet Loss, mean"
attr unit  ""
scalar SingleCell.ue[9].nic.mac 	macThroughputDl:lteRate 	406715.27330118
attr source  macThroughputDl
attr title  "Throughput at the MAC layer DL, lteRate"
attr unit  Bps
scalar SingleCell.ue[9].nic.mac 	macDelayDl:lteAvg 	0.0040045240339301
attr source  macDelayDl
attr title  "Delay at the MAC layer UL, lteAvg"
attr unit  s
scalar SingleCell.ue[9].nic.mac 	sentPacketToLowerLayer:count 	10710
attr interpolationmode  none
attr source  sentPacketToLowerLayer
scalar SingleCell.ue[9].nic.mac 	sentPacketToLowerLayer:sum(packetBytes) 	832
attr interpolationmode  none
attr source  sentPacketToLowerLayer
scalar SingleCell.ue[9].nic.mac 	sentPacketToUpperLayer:count 	10656
attr interpolationmode  none
attr source  sentPacketToUpperLayer
scalar SingleCell.ue[9].nic.mac 	sentPacketToUpperLayer:sum(packetBytes) 	18275680
attr interpolationmode  none
attr source  sentPacketToUpperLayer
scalar SingleCell.ue[9].nic.mac 	receivedPacketFromLowerLayer:count 	10756
attr interpolationmode  none
attr source  receivedPacketFromLowerLayer
scalar SingleCell.ue[9].nic.mac 	receivedPacketFromLowerLayer:sum(packetBytes) 	18309280
attr interpolationmode  none
attr source  receivedPacketFromLowerLayer
scalar SingleCell.ue[9].nic.mac 	receivedPacketFromUpperLayer:count 	64
attr interpolationmode  none
attr source  receivedPacketFromUpperLayer
scalar SingleCell.ue[9].nic.mac 	receivedPacketFromUpperLayer:sum(packetBytes) 	1388
attr interpolationmode  none
attr source  receivedPacketFromUpperLayer
scalar SingleCell.ue[9].nic.mac 	averageCqiDl:lteAvg 	14.995950273121
attr source  averageCqiDl
attr title  "Average Cqi reported in DL, lteAvg"
attr unit  cqi
scalar SingleCell.ue[9].networkLayer.arp 	failedARPResolution:count 	0
attr title  "ARP failed resolutions, count"
scalar SingleCell.ue[9].networkLayer.arp 	completedARPResolution:count 	0
attr title  "ARP completed resolutions, count"
scalar SingleCell.ue[9].networkLayer.arp 	initiatedARPResolution:count 	0
attr title  "ARP initiated resolutions, count"
scalar SingleCell.ue[9].networkLayer.arp 	sentReply:count 	0
attr title  "ARP replies sent, count"
scalar SingleCell.ue[9].networkLayer.arp 	sentReq:count 	0
attr title  "ARP request sent, count"
