version 2
run Scenario_4-0-20190320-11:46:19-32396
attr configname Scenario_4
attr datetime 20190320-11:46:19
attr experiment Scenario_4
attr inifile omnetpp.ini
attr iterationvars "$0=19, $1=true"
attr iterationvarsf 19,true-
attr measurement "$0=19, $1=true"
attr network SingleCell
attr processid 32396
attr repetition 0
attr replication #0
attr resultdir results
attr runnumber 0
attr seedset 0
param **.bufferSize (19s)
param **.channelControl.carrierFrequency 2100e+6Hz
param **.d2d (true)
param **.fbDelay 1
param **.feedbackComputation "xmldoc(\"config_channel.xml\")"
param **.mac.maxBytesPerTti 1KiB
param **.mac.queueSize 1MiB
param **.mac.schedulingDisciplineDl "\"MAXCI\""
param **.mac.schedulingDisciplineUl "\"MAXCI\""
param **.nic.phy.channelModel "xmldoc(\"config_channel.xml\")"
param **.packetInt 4ms
param **.routingRecorder.enabled false
param **.server.udpApp[*].typename "\"UDPVideoStreamServer\""
param **.server.udpApp[0].viewID 1
param **.server.udpApp[1].viewID 2
param **.server.udpApp[2].viewID 3
param **.ue[*].macCellId 1
param **.ue[*].masterId 1
param **.ue[*].udpApp[*].typename "\"UDPVideoStreamClient\""
param **.ue[*].udpApp[0].viewID 1
param **.ue[*].udpApp[1].viewID 2
param **.ue[*].udpApp[2].viewID 3
param **.ue[0].udpApp[0].startTime 2s
param **.ue[0].udpApp[1].startTime 16s
param **.ue[0].udpApp[2].startTime 25s
param **.ue[1].udpApp[0].startTime 12s
param **.ue[1].udpApp[1].startTime 20s
param **.ue[1].udpApp[2].startTime 30s
param *.numUe 2
param *.server.numUdpApps 3
param *.ue[*].mobility.constraintAreaMaxX 486m
param *.ue[*].mobility.constraintAreaMaxY 226m
param *.ue[*].mobility.constraintAreaMinX 457m
param *.ue[*].mobility.constraintAreaMinY 202m
param *.ue[*].mobility.initFromDisplayString false
param *.ue[*].mobility.initialX uniform(457m,486m)
param *.ue[*].mobility.initialY uniform(202m,226m)
param *.ue[*].mobility.initialZ 0
param *.ue[*].mobility.speed 1mps
param *.ue[*].mobilityType "\"LinearMobility\""
param *.ue[*].numUdpApps 3

scalar SingleCell.server.networkLayer.arp 	failedARPResolution:count 	0
attr title  "ARP failed resolutions, count"
scalar SingleCell.server.networkLayer.arp 	completedARPResolution:count 	0
attr title  "ARP completed resolutions, count"
scalar SingleCell.server.networkLayer.arp 	initiatedARPResolution:count 	0
attr title  "ARP initiated resolutions, count"
scalar SingleCell.server.networkLayer.arp 	sentReply:count 	0
attr title  "ARP replies sent, count"
scalar SingleCell.server.networkLayer.arp 	sentReq:count 	0
attr title  "ARP request sent, count"
scalar SingleCell.server.lo0.lo 	droppedPkBitError:count 	0
attr interpolationmode  none
attr source  dropPkBitError
attr title  "packets dropped/bit error, count"
scalar SingleCell.server.lo0.lo 	droppedPkBitError:sum(packetBytes) 	0
attr interpolationmode  none
attr source  dropPkBitError
attr title  "packets dropped/bit error, sum(packetBytes)"
scalar SingleCell.server.lo0.lo 	rcvdPkFromHL:count 	0
attr interpolationmode  none
attr source  packetReceivedFromUpper
attr title  "packets received from higher layer, count"
scalar SingleCell.server.lo0.lo 	rcvdPkFromHL:sum(packetBytes) 	0
attr interpolationmode  none
attr source  packetReceivedFromUpper
attr title  "packets received from higher layer, sum(packetBytes)"
scalar SingleCell.server.lo0.lo 	passedUpPk:count 	0
attr interpolationmode  none
attr source  packetSentToUpper
attr title  "packets passed to higher layer, count"
scalar SingleCell.server.lo0.lo 	passedUpPk:sum(packetBytes) 	0
attr interpolationmode  none
attr source  packetSentToUpper
attr title  "packets passed to higher layer, sum(packetBytes)"
statistic SingleCell.server.ppp[0].queue 	queueingTime:histogram
field count 183922
field mean 2.8463315970925e-07
field stddev 4.6407840098177e-07
field sum 0.052350300000045
field sqrsum 5.4511469423956e-08
field min 0
field max 2.484e-06
attr interpolationmode  none
attr title  "queueing time, histogram"
bin	-INF	0
bin	-0.5	0
bin	-0.46666666666667	0
bin	-0.43333333333333	0
bin	-0.4	0
bin	-0.36666666666667	0
bin	-0.33333333333333	0
bin	-0.3	0
bin	-0.26666666666667	0
bin	-0.23333333333333	0
bin	-0.2	0
bin	-0.16666666666667	0
bin	-0.13333333333333	0
bin	-0.1	0
bin	-0.066666666666667	0
bin	-0.033333333333333	0
bin	0	183922
bin	0.033333333333333	0
bin	0.066666666666667	0
bin	0.1	0
bin	0.13333333333333	0
bin	0.16666666666667	0
bin	0.2	0
bin	0.23333333333333	0
bin	0.26666666666667	0
bin	0.3	0
bin	0.33333333333333	0
bin	0.36666666666667	0
bin	0.4	0
bin	0.43333333333333	0
bin	0.46666666666667	0
bin	0.5	0
scalar SingleCell.server.ppp[0].queue 	dropPk:count 	0
attr interpolationmode  none
attr source  dropPkByQueue
attr title  "dropped packets, count"
scalar SingleCell.server.ppp[0].queue 	dropPk:sum(packetBytes) 	0
attr interpolationmode  none
attr source  dropPkByQueue
attr title  "dropped packets, sum(packetBytes)"
scalar SingleCell.server.ppp[0].queue 	queueLength:max 	3
attr interpolationmode  sample-hold
attr title  "queue length, max"
scalar SingleCell.server.ppp[0].queue 	queueLength:timeavg 	0.00026175150000022
attr interpolationmode  sample-hold
attr title  "queue length, timeavg"
scalar SingleCell.server.ppp[0].queue 	rcvdPk:count 	183922
attr interpolationmode  none
attr title  "received packets, count"
scalar SingleCell.server.ppp[0].queue 	rcvdPk:sum(packetBytes) 	189071816
attr interpolationmode  none
attr title  "received packets, sum(packetBytes)"
scalar SingleCell.server.ppp[0].ppp 	txState:timeavg 	0.00076143707999959
attr interpolationmode  sample-hold
attr title  "tx state, timeavg"
scalar SingleCell.server.ppp[0].ppp 	droppedPkIfaceDown:count 	0
attr interpolationmode  none
attr source  dropPkIfaceDown
attr title  "packets dropped/interface down, count"
scalar SingleCell.server.ppp[0].ppp 	droppedPkIfaceDown:sum(packetBytes) 	0
attr interpolationmode  none
attr source  dropPkIfaceDown
attr title  "packets dropped/interface down, sum(packetBytes)"
scalar SingleCell.server.ppp[0].ppp 	droppedPkBitError:count 	0
attr interpolationmode  none
attr source  dropPkBitError
attr title  "packets dropped/bit error, count"
scalar SingleCell.server.ppp[0].ppp 	droppedPkBitError:sum(packetBytes) 	0
attr interpolationmode  none
attr source  dropPkBitError
attr title  "packets dropped/bit error, sum(packetBytes)"
scalar SingleCell.server.ppp[0].ppp 	rxPkOk:count 	185
attr interpolationmode  none
attr source  rxPkOk
attr title  "packets received OK, count"
scalar SingleCell.server.ppp[0].ppp 	rxPkOk:sum(packetBytes) 	7770
attr interpolationmode  none
attr source  rxPkOk
attr title  "packets received OK, sum(packetBytes)"
scalar SingleCell.server.ppp[0].ppp 	txPk:count 	183922
attr interpolationmode  none
attr source  packetSentToLower
attr title  "packets transmitted, count"
scalar SingleCell.server.ppp[0].ppp 	txPk:sum(packetBytes) 	190359270
attr interpolationmode  none
attr source  packetSentToLower
attr title  "packets transmitted, sum(packetBytes)"
scalar SingleCell.server.ppp[0].ppp 	rcvdPkFromHL:count 	183922
attr interpolationmode  none
attr source  packetReceivedFromUpper
attr title  "packets received from higher layer, count"
scalar SingleCell.server.ppp[0].ppp 	rcvdPkFromHL:sum(packetBytes) 	189071816
attr interpolationmode  none
attr source  packetReceivedFromUpper
attr title  "packets received from higher layer, sum(packetBytes)"
scalar SingleCell.server.ppp[0].ppp 	passedUpPk:count 	185
attr interpolationmode  none
attr source  packetSentToUpper
attr title  "packets passed to higher layer, count"
scalar SingleCell.server.ppp[0].ppp 	passedUpPk:sum(packetBytes) 	6475
attr interpolationmode  none
attr source  packetSentToUpper
attr title  "packets passed to higher layer, sum(packetBytes)"
scalar SingleCell.server.udpApp[0] 	reqStreamBytes:count 	50
attr interpolationmode  none
attr title  "requested stream bytes, count"
scalar SingleCell.server.udpApp[0] 	reqStreamBytes:sum 	50000000
attr interpolationmode  none
attr title  "requested stream bytes, sum"
scalar SingleCell.server.udpApp[0] 	sentPk:count 	49768
attr interpolationmode  none
attr source  sentPk
attr title  "packets sent, count"
scalar SingleCell.server.udpApp[0] 	sentPk:sum(packetBytes) 	49768000
attr interpolationmode  none
attr source  sentPk
attr title  "packets sent, sum(packetBytes)"
scalar SingleCell.server.udpApp[1] 	reqStreamBytes:count 	91
attr interpolationmode  none
attr title  "requested stream bytes, count"
scalar SingleCell.server.udpApp[1] 	reqStreamBytes:sum 	91000000
attr interpolationmode  none
attr title  "requested stream bytes, sum"
scalar SingleCell.server.udpApp[1] 	sentPk:count 	90647
attr interpolationmode  none
attr source  sentPk
attr title  "packets sent, count"
scalar SingleCell.server.udpApp[1] 	sentPk:sum(packetBytes) 	90647000
attr interpolationmode  none
attr source  sentPk
attr title  "packets sent, sum(packetBytes)"
scalar SingleCell.server.udpApp[2] 	reqStreamBytes:count 	44
attr interpolationmode  none
attr title  "requested stream bytes, count"
scalar SingleCell.server.udpApp[2] 	reqStreamBytes:sum 	44000000
attr interpolationmode  none
attr title  "requested stream bytes, sum"
scalar SingleCell.server.udpApp[2] 	sentPk:count 	43507
attr interpolationmode  none
attr source  sentPk
attr title  "packets sent, count"
scalar SingleCell.server.udpApp[2] 	sentPk:sum(packetBytes) 	43507000
attr interpolationmode  none
attr source  sentPk
attr title  "packets sent, sum(packetBytes)"
scalar SingleCell.server.udp 	droppedPkBadChecksum:count 	0
attr interpolationmode  none
attr title  "packets dropped (checksum error), count"
scalar SingleCell.server.udp 	droppedPkWrongPort:count 	0
attr interpolationmode  none
attr title  "packets dropped (wrong port), count"
scalar SingleCell.server.udp 	passedUpPk:count 	185
attr interpolationmode  none
attr title  "packets passed up, count"
scalar SingleCell.server.udp 	rcvdPk:count 	185
attr interpolationmode  none
attr source  rcvdPk
attr title  "packets received, count"
scalar SingleCell.server.udp 	rcvdPk:sum(packetBytes) 	2775
attr interpolationmode  none
attr source  rcvdPk
attr title  "packets received, sum(packetBytes)"
scalar SingleCell.server.udp 	sentPk:count 	183922
attr interpolationmode  none
attr source  sentPk
attr title  "packets sent, count"
scalar SingleCell.server.udp 	sentPk:sum(packetBytes) 	185393376
attr interpolationmode  none
attr source  sentPk
attr title  "packets sent, sum(packetBytes)"
scalar SingleCell.router.networkLayer.arp 	failedARPResolution:count 	0
attr title  "ARP failed resolutions, count"
scalar SingleCell.router.networkLayer.arp 	completedARPResolution:count 	0
attr title  "ARP completed resolutions, count"
scalar SingleCell.router.networkLayer.arp 	initiatedARPResolution:count 	0
attr title  "ARP initiated resolutions, count"
scalar SingleCell.router.networkLayer.arp 	sentReply:count 	0
attr title  "ARP replies sent, count"
scalar SingleCell.router.networkLayer.arp 	sentReq:count 	0
attr title  "ARP request sent, count"
scalar SingleCell.router.lo0.lo 	droppedPkBitError:count 	0
attr interpolationmode  none
attr source  dropPkBitError
attr title  "packets dropped/bit error, count"
scalar SingleCell.router.lo0.lo 	droppedPkBitError:sum(packetBytes) 	0
attr interpolationmode  none
attr source  dropPkBitError
attr title  "packets dropped/bit error, sum(packetBytes)"
scalar SingleCell.router.lo0.lo 	rcvdPkFromHL:count 	0
attr interpolationmode  none
attr source  packetReceivedFromUpper
attr title  "packets received from higher layer, count"
scalar SingleCell.router.lo0.lo 	rcvdPkFromHL:sum(packetBytes) 	0
attr interpolationmode  none
attr source  packetReceivedFromUpper
attr title  "packets received from higher layer, sum(packetBytes)"
scalar SingleCell.router.lo0.lo 	passedUpPk:count 	0
attr interpolationmode  none
attr source  packetSentToUpper
attr title  "packets passed to higher layer, count"
scalar SingleCell.router.lo0.lo 	passedUpPk:sum(packetBytes) 	0
attr interpolationmode  none
attr source  packetSentToUpper
attr title  "packets passed to higher layer, sum(packetBytes)"
statistic SingleCell.router.ppp[0].queue 	queueingTime:histogram
field count 185
field mean 0
field stddev 0
field sum 0
field sqrsum 0
field min 0
field max 0
attr interpolationmode  none
attr title  "queueing time, histogram"
bin	-INF	0
bin	-0.5	0
bin	-0.46666666666667	0
bin	-0.43333333333333	0
bin	-0.4	0
bin	-0.36666666666667	0
bin	-0.33333333333333	0
bin	-0.3	0
bin	-0.26666666666667	0
bin	-0.23333333333333	0
bin	-0.2	0
bin	-0.16666666666667	0
bin	-0.13333333333333	0
bin	-0.1	0
bin	-0.066666666666667	0
bin	-0.033333333333333	0
bin	0	185
bin	0.033333333333333	0
bin	0.066666666666667	0
bin	0.1	0
bin	0.13333333333333	0
bin	0.16666666666667	0
bin	0.2	0
bin	0.23333333333333	0
bin	0.26666666666667	0
bin	0.3	0
bin	0.33333333333333	0
bin	0.36666666666667	0
bin	0.4	0
bin	0.43333333333333	0
bin	0.46666666666667	0
bin	0.5	0
scalar SingleCell.router.ppp[0].queue 	dropPk:count 	0
attr interpolationmode  none
attr source  dropPkByQueue
attr title  "dropped packets, count"
scalar SingleCell.router.ppp[0].queue 	dropPk:sum(packetBytes) 	0
attr interpolationmode  none
attr source  dropPkByQueue
attr title  "dropped packets, sum(packetBytes)"
scalar SingleCell.router.ppp[0].queue 	queueLength:max 	0
attr interpolationmode  sample-hold
attr title  "queue length, max"
scalar SingleCell.router.ppp[0].queue 	queueLength:timeavg 	0
attr interpolationmode  sample-hold
attr title  "queue length, timeavg"
scalar SingleCell.router.ppp[0].queue 	rcvdPk:count 	185
attr interpolationmode  none
attr title  "received packets, count"
scalar SingleCell.router.ppp[0].queue 	rcvdPk:sum(packetBytes) 	6475
attr interpolationmode  none
attr title  "received packets, sum(packetBytes)"
scalar SingleCell.router.ppp[0].ppp 	txState:timeavg 	3.108e-08
attr interpolationmode  sample-hold
attr title  "tx state, timeavg"
scalar SingleCell.router.ppp[0].ppp 	droppedPkIfaceDown:count 	0
attr interpolationmode  none
attr source  dropPkIfaceDown
attr title  "packets dropped/interface down, count"
scalar SingleCell.router.ppp[0].ppp 	droppedPkIfaceDown:sum(packetBytes) 	0
attr interpolationmode  none
attr source  dropPkIfaceDown
attr title  "packets dropped/interface down, sum(packetBytes)"
scalar SingleCell.router.ppp[0].ppp 	droppedPkBitError:count 	0
attr interpolationmode  none
attr source  dropPkBitError
attr title  "packets dropped/bit error, count"
scalar SingleCell.router.ppp[0].ppp 	droppedPkBitError:sum(packetBytes) 	0
attr interpolationmode  none
attr source  dropPkBitError
attr title  "packets dropped/bit error, sum(packetBytes)"
scalar SingleCell.router.ppp[0].ppp 	rxPkOk:count 	183922
attr interpolationmode  none
attr source  rxPkOk
attr title  "packets received OK, count"
scalar SingleCell.router.ppp[0].ppp 	rxPkOk:sum(packetBytes) 	190359270
attr interpolationmode  none
attr source  rxPkOk
attr title  "packets received OK, sum(packetBytes)"
scalar SingleCell.router.ppp[0].ppp 	txPk:count 	185
attr interpolationmode  none
attr source  packetSentToLower
attr title  "packets transmitted, count"
scalar SingleCell.router.ppp[0].ppp 	txPk:sum(packetBytes) 	7770
attr interpolationmode  none
attr source  packetSentToLower
attr title  "packets transmitted, sum(packetBytes)"
scalar SingleCell.router.ppp[0].ppp 	rcvdPkFromHL:count 	185
attr interpolationmode  none
attr source  packetReceivedFromUpper
attr title  "packets received from higher layer, count"
scalar SingleCell.router.ppp[0].ppp 	rcvdPkFromHL:sum(packetBytes) 	6475
attr interpolationmode  none
attr source  packetReceivedFromUpper
attr title  "packets received from higher layer, sum(packetBytes)"
scalar SingleCell.router.ppp[0].ppp 	passedUpPk:count 	183922
attr interpolationmode  none
attr source  packetSentToUpper
attr title  "packets passed to higher layer, count"
scalar SingleCell.router.ppp[0].ppp 	passedUpPk:sum(packetBytes) 	189071816
attr interpolationmode  none
attr source  packetSentToUpper
attr title  "packets passed to higher layer, sum(packetBytes)"
statistic SingleCell.router.ppp[1].queue 	queueingTime:histogram
field count 183922
field mean 0
field stddev 0
field sum 0
field sqrsum 0
field min 0
field max 0
attr interpolationmode  none
attr title  "queueing time, histogram"
bin	-INF	0
bin	-0.5	0
bin	-0.46666666666667	0
bin	-0.43333333333333	0
bin	-0.4	0
bin	-0.36666666666667	0
bin	-0.33333333333333	0
bin	-0.3	0
bin	-0.26666666666667	0
bin	-0.23333333333333	0
bin	-0.2	0
bin	-0.16666666666667	0
bin	-0.13333333333333	0
bin	-0.1	0
bin	-0.066666666666667	0
bin	-0.033333333333333	0
bin	0	183922
bin	0.033333333333333	0
bin	0.066666666666667	0
bin	0.1	0
bin	0.13333333333333	0
bin	0.16666666666667	0
bin	0.2	0
bin	0.23333333333333	0
bin	0.26666666666667	0
bin	0.3	0
bin	0.33333333333333	0
bin	0.36666666666667	0
bin	0.4	0
bin	0.43333333333333	0
bin	0.46666666666667	0
bin	0.5	0
scalar SingleCell.router.ppp[1].queue 	dropPk:count 	0
attr interpolationmode  none
attr source  dropPkByQueue
attr title  "dropped packets, count"
scalar SingleCell.router.ppp[1].queue 	dropPk:sum(packetBytes) 	0
attr interpolationmode  none
attr source  dropPkByQueue
attr title  "dropped packets, sum(packetBytes)"
scalar SingleCell.router.ppp[1].queue 	queueLength:max 	0
attr interpolationmode  sample-hold
attr title  "queue length, max"
scalar SingleCell.router.ppp[1].queue 	queueLength:timeavg 	0
attr interpolationmode  sample-hold
attr title  "queue length, timeavg"
scalar SingleCell.router.ppp[1].queue 	rcvdPk:count 	183922
attr interpolationmode  none
attr title  "received packets, count"
scalar SingleCell.router.ppp[1].queue 	rcvdPk:sum(packetBytes) 	189071816
attr interpolationmode  none
attr title  "received packets, sum(packetBytes)"
scalar SingleCell.router.ppp[1].ppp 	txState:timeavg 	0.00076143707999959
attr interpolationmode  sample-hold
attr title  "tx state, timeavg"
scalar SingleCell.router.ppp[1].ppp 	droppedPkIfaceDown:count 	0
attr interpolationmode  none
attr source  dropPkIfaceDown
attr title  "packets dropped/interface down, count"
scalar SingleCell.router.ppp[1].ppp 	droppedPkIfaceDown:sum(packetBytes) 	0
attr interpolationmode  none
attr source  dropPkIfaceDown
attr title  "packets dropped/interface down, sum(packetBytes)"
scalar SingleCell.router.ppp[1].ppp 	droppedPkBitError:count 	0
attr interpolationmode  none
attr source  dropPkBitError
attr title  "packets dropped/bit error, count"
scalar SingleCell.router.ppp[1].ppp 	droppedPkBitError:sum(packetBytes) 	0
attr interpolationmode  none
attr source  dropPkBitError
attr title  "packets dropped/bit error, sum(packetBytes)"
scalar SingleCell.router.ppp[1].ppp 	rxPkOk:count 	185
attr interpolationmode  none
attr source  rxPkOk
attr title  "packets received OK, count"
scalar SingleCell.router.ppp[1].ppp 	rxPkOk:sum(packetBytes) 	7770
attr interpolationmode  none
attr source  rxPkOk
attr title  "packets received OK, sum(packetBytes)"
scalar SingleCell.router.ppp[1].ppp 	txPk:count 	183922
attr interpolationmode  none
attr source  packetSentToLower
attr title  "packets transmitted, count"
scalar SingleCell.router.ppp[1].ppp 	txPk:sum(packetBytes) 	190359270
attr interpolationmode  none
attr source  packetSentToLower
attr title  "packets transmitted, sum(packetBytes)"
scalar SingleCell.router.ppp[1].ppp 	rcvdPkFromHL:count 	183922
attr interpolationmode  none
attr source  packetReceivedFromUpper
attr title  "packets received from higher layer, count"
scalar SingleCell.router.ppp[1].ppp 	rcvdPkFromHL:sum(packetBytes) 	189071816
attr interpolationmode  none
attr source  packetReceivedFromUpper
attr title  "packets received from higher layer, sum(packetBytes)"
scalar SingleCell.router.ppp[1].ppp 	passedUpPk:count 	185
attr interpolationmode  none
attr source  packetSentToUpper
attr title  "packets passed to higher layer, count"
scalar SingleCell.router.ppp[1].ppp 	passedUpPk:sum(packetBytes) 	6475
attr interpolationmode  none
attr source  packetSentToUpper
attr title  "packets passed to higher layer, sum(packetBytes)"
scalar SingleCell.pgw.networkLayer.arp 	failedARPResolution:count 	0
attr title  "ARP failed resolutions, count"
scalar SingleCell.pgw.networkLayer.arp 	completedARPResolution:count 	0
attr title  "ARP completed resolutions, count"
scalar SingleCell.pgw.networkLayer.arp 	initiatedARPResolution:count 	0
attr title  "ARP initiated resolutions, count"
scalar SingleCell.pgw.networkLayer.arp 	sentReply:count 	0
attr title  "ARP replies sent, count"
scalar SingleCell.pgw.networkLayer.arp 	sentReq:count 	0
attr title  "ARP request sent, count"
scalar SingleCell.pgw.lo0.lo 	droppedPkBitError:count 	0
attr interpolationmode  none
attr source  dropPkBitError
attr title  "packets dropped/bit error, count"
scalar SingleCell.pgw.lo0.lo 	droppedPkBitError:sum(packetBytes) 	0
attr interpolationmode  none
attr source  dropPkBitError
attr title  "packets dropped/bit error, sum(packetBytes)"
scalar SingleCell.pgw.lo0.lo 	rcvdPkFromHL:count 	0
attr interpolationmode  none
attr source  packetReceivedFromUpper
attr title  "packets received from higher layer, count"
scalar SingleCell.pgw.lo0.lo 	rcvdPkFromHL:sum(packetBytes) 	0
attr interpolationmode  none
attr source  packetReceivedFromUpper
attr title  "packets received from higher layer, sum(packetBytes)"
scalar SingleCell.pgw.lo0.lo 	passedUpPk:count 	0
attr interpolationmode  none
attr source  packetSentToUpper
attr title  "packets passed to higher layer, count"
scalar SingleCell.pgw.lo0.lo 	passedUpPk:sum(packetBytes) 	0
attr interpolationmode  none
attr source  packetSentToUpper
attr title  "packets passed to higher layer, sum(packetBytes)"
statistic SingleCell.pgw.ppp[0].queue 	queueingTime:histogram
field count 183922
field mean 7.7002207457595e-09
field stddev 1.2554777997582e-08
field sum 0.0014162400000016
field sqrsum 3.9895439360009e-11
field min 0
field max 6.72e-08
attr interpolationmode  none
attr title  "queueing time, histogram"
bin	-INF	0
bin	-0.5	0
bin	-0.46666666666667	0
bin	-0.43333333333333	0
bin	-0.4	0
bin	-0.36666666666667	0
bin	-0.33333333333333	0
bin	-0.3	0
bin	-0.26666666666667	0
bin	-0.23333333333333	0
bin	-0.2	0
bin	-0.16666666666667	0
bin	-0.13333333333333	0
bin	-0.1	0
bin	-0.066666666666667	0
bin	-0.033333333333333	0
bin	0	183922
bin	0.033333333333333	0
bin	0.066666666666667	0
bin	0.1	0
bin	0.13333333333333	0
bin	0.16666666666667	0
bin	0.2	0
bin	0.23333333333333	0
bin	0.26666666666667	0
bin	0.3	0
bin	0.33333333333333	0
bin	0.36666666666667	0
bin	0.4	0
bin	0.43333333333333	0
bin	0.46666666666667	0
bin	0.5	0
scalar SingleCell.pgw.ppp[0].queue 	dropPk:count 	0
attr interpolationmode  none
attr source  dropPkByQueue
attr title  "dropped packets, count"
scalar SingleCell.pgw.ppp[0].queue 	dropPk:sum(packetBytes) 	0
attr interpolationmode  none
attr source  dropPkByQueue
attr title  "dropped packets, sum(packetBytes)"
scalar SingleCell.pgw.ppp[0].queue 	queueLength:max 	1
attr interpolationmode  sample-hold
attr title  "queue length, max"
scalar SingleCell.pgw.ppp[0].queue 	queueLength:timeavg 	7.0812000000079e-06
attr interpolationmode  sample-hold
attr title  "queue length, timeavg"
scalar SingleCell.pgw.ppp[0].queue 	rcvdPk:count 	183922
attr interpolationmode  none
attr title  "received packets, count"
scalar SingleCell.pgw.ppp[0].queue 	rcvdPk:sum(packetBytes) 	194221632
attr interpolationmode  none
attr title  "received packets, sum(packetBytes)"
scalar SingleCell.pgw.ppp[0].ppp 	txState:timeavg 	0.00078203634400138
attr interpolationmode  sample-hold
attr title  "tx state, timeavg"
scalar SingleCell.pgw.ppp[0].ppp 	droppedPkIfaceDown:count 	0
attr interpolationmode  none
attr source  dropPkIfaceDown
attr title  "packets dropped/interface down, count"
scalar SingleCell.pgw.ppp[0].ppp 	droppedPkIfaceDown:sum(packetBytes) 	0
attr interpolationmode  none
attr source  dropPkIfaceDown
attr title  "packets dropped/interface down, sum(packetBytes)"
scalar SingleCell.pgw.ppp[0].ppp 	droppedPkBitError:count 	0
attr interpolationmode  none
attr source  dropPkBitError
attr title  "packets dropped/bit error, count"
scalar SingleCell.pgw.ppp[0].ppp 	droppedPkBitError:sum(packetBytes) 	0
attr interpolationmode  none
attr source  dropPkBitError
attr title  "packets dropped/bit error, sum(packetBytes)"
scalar SingleCell.pgw.ppp[0].ppp 	rxPkOk:count 	185
attr interpolationmode  none
attr source  rxPkOk
attr title  "packets received OK, count"
scalar SingleCell.pgw.ppp[0].ppp 	rxPkOk:sum(packetBytes) 	12950
attr interpolationmode  none
attr source  rxPkOk
attr title  "packets received OK, sum(packetBytes)"
scalar SingleCell.pgw.ppp[0].ppp 	txPk:count 	183922
attr interpolationmode  none
attr source  packetSentToLower
attr title  "packets transmitted, count"
scalar SingleCell.pgw.ppp[0].ppp 	txPk:sum(packetBytes) 	195509086
attr interpolationmode  none
attr source  packetSentToLower
attr title  "packets transmitted, sum(packetBytes)"
scalar SingleCell.pgw.ppp[0].ppp 	rcvdPkFromHL:count 	183922
attr interpolationmode  none
attr source  packetReceivedFromUpper
attr title  "packets received from higher layer, count"
scalar SingleCell.pgw.ppp[0].ppp 	rcvdPkFromHL:sum(packetBytes) 	194221632
attr interpolationmode  none
attr source  packetReceivedFromUpper
attr title  "packets received from higher layer, sum(packetBytes)"
scalar SingleCell.pgw.ppp[0].ppp 	passedUpPk:count 	185
attr interpolationmode  none
attr source  packetSentToUpper
attr title  "packets passed to higher layer, count"
scalar SingleCell.pgw.ppp[0].ppp 	passedUpPk:sum(packetBytes) 	11655
attr interpolationmode  none
attr source  packetSentToUpper
attr title  "packets passed to higher layer, sum(packetBytes)"
statistic SingleCell.pgw.pppInterface.queue 	queueingTime:histogram
field count 185
field mean 0
field stddev 0
field sum 0
field sqrsum 0
field min 0
field max 0
attr interpolationmode  none
attr title  "queueing time, histogram"
bin	-INF	0
bin	-0.5	0
bin	-0.46666666666667	0
bin	-0.43333333333333	0
bin	-0.4	0
bin	-0.36666666666667	0
bin	-0.33333333333333	0
bin	-0.3	0
bin	-0.26666666666667	0
bin	-0.23333333333333	0
bin	-0.2	0
bin	-0.16666666666667	0
bin	-0.13333333333333	0
bin	-0.1	0
bin	-0.066666666666667	0
bin	-0.033333333333333	0
bin	0	185
bin	0.033333333333333	0
bin	0.066666666666667	0
bin	0.1	0
bin	0.13333333333333	0
bin	0.16666666666667	0
bin	0.2	0
bin	0.23333333333333	0
bin	0.26666666666667	0
bin	0.3	0
bin	0.33333333333333	0
bin	0.36666666666667	0
bin	0.4	0
bin	0.43333333333333	0
bin	0.46666666666667	0
bin	0.5	0
scalar SingleCell.pgw.pppInterface.queue 	dropPk:count 	0
attr interpolationmode  none
attr source  dropPkByQueue
attr title  "dropped packets, count"
scalar SingleCell.pgw.pppInterface.queue 	dropPk:sum(packetBytes) 	0
attr interpolationmode  none
attr source  dropPkByQueue
attr title  "dropped packets, sum(packetBytes)"
scalar SingleCell.pgw.pppInterface.queue 	queueLength:max 	0
attr interpolationmode  sample-hold
attr title  "queue length, max"
scalar SingleCell.pgw.pppInterface.queue 	queueLength:timeavg 	0
attr interpolationmode  sample-hold
attr title  "queue length, timeavg"
scalar SingleCell.pgw.pppInterface.queue 	rcvdPk:count 	185
attr interpolationmode  none
attr title  "received packets, count"
scalar SingleCell.pgw.pppInterface.queue 	rcvdPk:sum(packetBytes) 	6475
attr interpolationmode  none
attr title  "received packets, sum(packetBytes)"
scalar SingleCell.pgw.pppInterface.ppp 	txState:timeavg 	3.108e-08
attr interpolationmode  sample-hold
attr title  "tx state, timeavg"
scalar SingleCell.pgw.pppInterface.ppp 	droppedPkIfaceDown:count 	0
attr interpolationmode  none
attr source  dropPkIfaceDown
attr title  "packets dropped/interface down, count"
scalar SingleCell.pgw.pppInterface.ppp 	droppedPkIfaceDown:sum(packetBytes) 	0
attr interpolationmode  none
attr source  dropPkIfaceDown
attr title  "packets dropped/interface down, sum(packetBytes)"
scalar SingleCell.pgw.pppInterface.ppp 	droppedPkBitError:count 	0
attr interpolationmode  none
attr source  dropPkBitError
attr title  "packets dropped/bit error, count"
scalar SingleCell.pgw.pppInterface.ppp 	droppedPkBitError:sum(packetBytes) 	0
attr interpolationmode  none
attr source  dropPkBitError
attr title  "packets dropped/bit error, sum(packetBytes)"
scalar SingleCell.pgw.pppInterface.ppp 	rxPkOk:count 	183922
attr interpolationmode  none
attr source  rxPkOk
attr title  "packets received OK, count"
scalar SingleCell.pgw.pppInterface.ppp 	rxPkOk:sum(packetBytes) 	190359270
attr interpolationmode  none
attr source  rxPkOk
attr title  "packets received OK, sum(packetBytes)"
scalar SingleCell.pgw.pppInterface.ppp 	txPk:count 	185
attr interpolationmode  none
attr source  packetSentToLower
attr title  "packets transmitted, count"
scalar SingleCell.pgw.pppInterface.ppp 	txPk:sum(packetBytes) 	7770
attr interpolationmode  none
attr source  packetSentToLower
attr title  "packets transmitted, sum(packetBytes)"
scalar SingleCell.pgw.pppInterface.ppp 	rcvdPkFromHL:count 	185
attr interpolationmode  none
attr source  packetReceivedFromUpper
attr title  "packets received from higher layer, count"
scalar SingleCell.pgw.pppInterface.ppp 	rcvdPkFromHL:sum(packetBytes) 	6475
attr interpolationmode  none
attr source  packetReceivedFromUpper
attr title  "packets received from higher layer, sum(packetBytes)"
scalar SingleCell.pgw.pppInterface.ppp 	passedUpPk:count 	183922
attr interpolationmode  none
attr source  packetSentToUpper
attr title  "packets passed to higher layer, count"
scalar SingleCell.pgw.pppInterface.ppp 	passedUpPk:sum(packetBytes) 	189071816
attr interpolationmode  none
attr source  packetSentToUpper
attr title  "packets passed to higher layer, sum(packetBytes)"
scalar SingleCell.pgw.udp 	droppedPkBadChecksum:count 	0
attr interpolationmode  none
attr title  "packets dropped (checksum error), count"
scalar SingleCell.pgw.udp 	droppedPkWrongPort:count 	0
attr interpolationmode  none
attr title  "packets dropped (wrong port), count"
scalar SingleCell.pgw.udp 	passedUpPk:count 	185
attr interpolationmode  none
attr title  "packets passed up, count"
scalar SingleCell.pgw.udp 	rcvdPk:count 	185
attr interpolationmode  none
attr source  rcvdPk
attr title  "packets received, count"
scalar SingleCell.pgw.udp 	rcvdPk:sum(packetBytes) 	7955
attr interpolationmode  none
attr source  rcvdPk
attr title  "packets received, sum(packetBytes)"
scalar SingleCell.pgw.udp 	sentPk:count 	183922
attr interpolationmode  none
attr source  sentPk
attr title  "packets sent, count"
scalar SingleCell.pgw.udp 	sentPk:sum(packetBytes) 	190543192
attr interpolationmode  none
attr source  sentPk
attr title  "packets sent, sum(packetBytes)"
scalar SingleCell.eNodeB.nic.pdcpRrc 	sentPacketToLowerLayer:count 	184010
attr interpolationmode  none
attr source  sentPacketToLowerLayer
scalar SingleCell.eNodeB.nic.pdcpRrc 	sentPacketToLowerLayer:sum(packetBytes) 	189258906
attr interpolationmode  none
attr source  sentPacketToLowerLayer
scalar SingleCell.eNodeB.nic.pdcpRrc 	sentPacketToUpperLayer:count 	273
attr interpolationmode  none
attr source  sentPacketToUpperLayer
scalar SingleCell.eNodeB.nic.pdcpRrc 	sentPacketToUpperLayer:sum(packetBytes) 	9555
attr interpolationmode  none
attr source  sentPacketToUpperLayer
scalar SingleCell.eNodeB.nic.pdcpRrc 	receivedPacketFromLowerLayer:count 	273
attr interpolationmode  none
attr source  receivedPacketFromLowerLayer
scalar SingleCell.eNodeB.nic.pdcpRrc 	receivedPacketFromLowerLayer:sum(packetBytes) 	9828
attr interpolationmode  none
attr source  receivedPacketFromLowerLayer
scalar SingleCell.eNodeB.nic.pdcpRrc 	receivedPacketFromUpperLayer:count 	184010
attr interpolationmode  none
attr source  receivedPacketFromUpperLayer
scalar SingleCell.eNodeB.nic.pdcpRrc 	receivedPacketFromUpperLayer:sum(packetBytes) 	189074896
attr interpolationmode  none
attr source  receivedPacketFromUpperLayer
scalar SingleCell.eNodeB.nic.rlc.um 	rlcCellPacketLossUl:lteAvg 	0
attr source  rlcCellPacketLossUl
attr title  "rlc Cell Packet Loss, lteAvg"
attr unit  ""
scalar SingleCell.eNodeB.nic.rlc.um 	rlcCellPacketLossDl:lteAvg 	0.49999728268254
attr source  rlcCellPacketLossDl
attr title  "rlc Cell Packet Loss, lteAvg"
attr unit  ""
scalar SingleCell.eNodeB.nic.rlc.um 	rlcCellThroughputDl:lteRate 	955919.17447041
attr source  rlcCellThroughputDl
attr title  "Cell Throughput at the rlc layer DL, lteRate"
attr unit  Bps
scalar SingleCell.eNodeB.nic.rlc.um 	rlcCellThroughputUl:lteRate 	49.639622803517
attr source  rlcCellThroughputUl
attr title  "Cell Throughput at the rlc layer UL, lteRate"
attr unit  Bps
scalar SingleCell.eNodeB.nic.mac 	cqiDlMuMimo0:lteAvg 	12.351682966341
attr source  cqiDlMuMimo0
attr title  "Average cqi MuMimo band 0, lteAvg"
attr unit  cqi
scalar SingleCell.eNodeB.nic.mac 	cqiDlMuMimo0:lteAvg 	14.466160676786
attr source  cqiDlMuMimo0
attr title  "Average cqi MuMimo band 0, lteAvg"
attr unit  cqi
scalar SingleCell.eNodeB.nic.mac 	cqiDlTxDiv0:lteAvg 	14.82552348953
attr source  cqiDlTxDiv0
attr title  "Average cqi TxDiv band 0, lteAvg"
attr unit  cqi
scalar SingleCell.eNodeB.nic.mac 	cqiDlTxDiv0:lteAvg 	14.991810163797
attr source  cqiDlTxDiv0
attr title  "Average cqi TxDiv band 0, lteAvg"
attr unit  cqi
scalar SingleCell.eNodeB.nic.mac 	cqiDlSpmux0:lteAvg 	10.510529789404
attr source  cqiDlSpmux0
attr title  "Average cqi Spmux band 0, lteAvg"
attr unit  cqi
scalar SingleCell.eNodeB.nic.mac 	cqiDlSpmux0:lteAvg 	13.730245395092
attr source  cqiDlSpmux0
attr title  "Average cqi Spmux band 0, lteAvg"
attr unit  cqi
scalar SingleCell.eNodeB.nic.mac 	cqiDlSiso0:lteAvg 	12.351682966341
attr source  cqiDlSiso0
attr title  "Average cqi siso band 0, lteAvg"
attr unit  cqi
scalar SingleCell.eNodeB.nic.mac 	cqiDlSiso0:lteAvg 	14.466160676786
attr source  cqiDlSiso0
attr title  "Average cqi siso band 0, lteAvg"
attr unit  cqi
scalar SingleCell.eNodeB.nic.mac 	depletedPowerUl:lteAvg 	0
attr source  depletedPowerUl
attr title  "LTE ENodeB depleted power Ul, lteAvg"
attr unit  watts
scalar SingleCell.eNodeB.nic.mac 	depletedPowerDl:lteAvg 	301.28933079955
attr source  depletedPowerDl
attr title  "LTE ENodeB depleted power Dl, lteAvg"
attr unit  watts
scalar SingleCell.eNodeB.nic.mac 	avgServedBlocksUl:lteAvg 	1.03907
attr source  avgServedBlocksUl
attr title  "LTE Avg Served Blocks Ul, lteAvg"
attr unit  blocks
scalar SingleCell.eNodeB.nic.mac 	avgServedBlocksDl:lteAvg 	10.981205
attr source  avgServedBlocksDl
attr title  "LTE Avg Served Blocks Dl, lteAvg"
attr unit  blocks
scalar SingleCell.eNodeB.nic.mac 	cellBlocksUtilizationUl:lteAvg 	0.010390699999995
attr source  cellBlocksUtilizationUl
attr title  "LTE Cell Blocks Utilization Ul, lteAvg"
attr unit  blocks
scalar SingleCell.eNodeB.nic.mac 	cellBlocksUtilizationDl:lteAvg 	0.10981204999994
attr source  cellBlocksUtilizationDl
attr title  "LTE Cell Blocks Utilization Dl, lteAvg"
attr unit  blocks
scalar SingleCell.eNodeB.nic.mac 	measuredItbs:mean 	21.146774547006
attr source  measuredItbs
attr title  "TBS index, mean"
attr unit  ""
scalar SingleCell.eNodeB.nic.mac 	harqErrorRate_4th_D2D:mean 	-nan
attr source  harqErrorRate_4th_D2D
attr title  "Harq Error Rate D2D, mean"
attr unit  ""
scalar SingleCell.eNodeB.nic.mac 	harqErrorRate_4th_Dl:mean 	-nan
attr source  harqErrorRate_4th_Dl
attr title  "Harq Error Rate Dl, mean"
attr unit  ""
scalar SingleCell.eNodeB.nic.mac 	harqErrorRate_4th_Ul:mean 	-nan
attr source  harqErrorRate_4th_Ul
attr title  "Harq Error Rate Dl, mean"
attr unit  ""
scalar SingleCell.eNodeB.nic.mac 	harqErrorRate_3rd_D2D:mean 	-nan
attr source  harqErrorRate_3rd_D2D
attr title  "Harq Error Rate D2D, mean"
attr unit  ""
scalar SingleCell.eNodeB.nic.mac 	harqErrorRate_3rd_Dl:mean 	-nan
attr source  harqErrorRate_3rd_Dl
attr title  "Harq Error Rate Dl, mean"
attr unit  ""
scalar SingleCell.eNodeB.nic.mac 	harqErrorRate_3rd_Ul:mean 	-nan
attr source  harqErrorRate_3rd_Ul
attr title  "Harq Error Rate Dl, mean"
attr unit  ""
scalar SingleCell.eNodeB.nic.mac 	harqErrorRate_2nd_D2D:mean 	-nan
attr source  harqErrorRate_2nd_D2D
attr title  "Harq Error Rate D2D, mean"
attr unit  ""
scalar SingleCell.eNodeB.nic.mac 	harqErrorRate_2nd_Dl:mean 	-nan
attr source  harqErrorRate_2nd_Dl
attr title  "Harq Error Rate Dl, mean"
attr unit  ""
scalar SingleCell.eNodeB.nic.mac 	harqErrorRate_2nd_Ul:mean 	-nan
attr source  harqErrorRate_2nd_Ul
attr title  "Harq Error Rate Dl, mean"
attr unit  ""
scalar SingleCell.eNodeB.nic.mac 	harqErrorRate_1st_D2D:mean 	-nan
attr source  harqErrorRate_1st_D2D
attr title  "Harq Error Rate D2D, mean"
attr unit  ""
scalar SingleCell.eNodeB.nic.mac 	harqErrorRate_1st_Dl:mean 	-nan
attr source  harqErrorRate_1st_Dl
attr title  "Harq Error Rate Dl, mean"
attr unit  ""
scalar SingleCell.eNodeB.nic.mac 	harqErrorRate_1st_Ul:mean 	-nan
attr source  harqErrorRate_1st_Ul
attr title  "Harq Error Rate Dl, mean"
attr unit  ""
scalar SingleCell.eNodeB.nic.mac 	harqErrorRateD2D:mean 	-nan
attr source  harqErrorRateD2D
attr title  "Harq Error Rate D2D, mean"
attr unit  ""
scalar SingleCell.eNodeB.nic.mac 	harqErrorRateDl:mean 	-nan
attr source  harqErrorRateDl
attr title  "Harq Error Rate Dl, mean"
attr unit  ""
scalar SingleCell.eNodeB.nic.mac 	harqErrorRateUl:mean 	-nan
attr source  harqErrorRateUl
attr title  "Harq Error Rate Dl, mean"
attr unit  ""
scalar SingleCell.eNodeB.nic.mac 	macPacketLossD2D:mean 	-nan
attr source  macPacketLossD2D
attr title  "Mac Packet Loss D2D, mean"
attr unit  ""
scalar SingleCell.eNodeB.nic.mac 	macPacketLossDl:mean 	-nan
attr source  macPacketLossDl
attr title  "Mac Packet Loss, mean"
attr unit  ""
scalar SingleCell.eNodeB.nic.mac 	macPacketLossUl:mean 	-nan
attr source  macPacketLossUl
attr title  "Mac Packet Loss, mean"
attr unit  ""
scalar SingleCell.eNodeB.nic.mac 	macCellPacketLossD2D:mean 	-nan
attr source  macCellPacketLossD2D
attr title  "Mac Cell Packet Loss D2D, mean"
attr unit  ""
scalar SingleCell.eNodeB.nic.mac 	macCellPacketLossUl:mean 	0
attr source  macCellPacketLossUl
attr title  "Mac Cell Packet Loss, mean"
attr unit  ""
scalar SingleCell.eNodeB.nic.mac 	macCellPacketLossDl:mean 	0
attr source  macCellPacketLossDl
attr title  "Mac Cell Packet Loss, mean"
attr unit  ""
scalar SingleCell.eNodeB.nic.mac 	macCellThroughputDl:lteRate 	958955.95559192
attr source  macCellThroughputDl
attr title  "Cell Throughput at the MAC layer DL, lteRate"
attr unit  Bps
scalar SingleCell.eNodeB.nic.mac 	macCellThroughputUl:lteRate 	62.578285991353
attr source  macCellThroughputUl
attr title  "Cell Throughput at the MAC layer UL, lteRate"
attr unit  Bps
scalar SingleCell.ue[0].nic.mac 	macThroughputUl:lteRate 	31.556830579013
attr source  macThroughputUl
attr title  "Throughput at the MAC layer UL, lteRate"
attr unit  Bps
scalar SingleCell.ue[1].nic.mac 	macThroughputUl:lteRate 	32.671603046938
attr source  macThroughputUl
attr title  "Throughput at the MAC layer UL, lteRate"
attr unit  Bps
scalar SingleCell.ue[0].nic.mac 	macDelayUl:lteAvg 	0.0040846560846561
attr source  macDelayUl
attr title  "Delay at the MAC layer UL, lteAvg"
attr unit  s
scalar SingleCell.ue[1].nic.mac 	macDelayUl:lteAvg 	0.0040163599182004
attr source  macDelayUl
attr title  "Delay at the MAC layer UL, lteAvg"
attr unit  s
scalar SingleCell.eNodeB.nic.mac 	sentPacketToLowerLayer:count 	350689
attr interpolationmode  none
attr source  sentPacketToLowerLayer
scalar SingleCell.eNodeB.nic.mac 	sentPacketToLowerLayer:sum(packetBytes) 	190145983
attr interpolationmode  none
attr source  sentPacketToLowerLayer
scalar SingleCell.eNodeB.nic.mac 	sentPacketToUpperLayer:count 	150725
attr interpolationmode  none
attr source  sentPacketToUpperLayer
scalar SingleCell.eNodeB.nic.mac 	sentPacketToUpperLayer:sum(packetBytes) 	10656
attr interpolationmode  none
attr source  sentPacketToUpperLayer
scalar SingleCell.eNodeB.nic.mac 	receivedPacketFromLowerLayer:count 	218716
attr interpolationmode  none
attr source  receivedPacketFromLowerLayer
scalar SingleCell.eNodeB.nic.mac 	receivedPacketFromLowerLayer:sum(packetBytes) 	12505
attr interpolationmode  none
attr source  receivedPacketFromLowerLayer
scalar SingleCell.eNodeB.nic.mac 	receivedPacketFromUpperLayer:count 	334321
attr interpolationmode  none
attr source  receivedPacketFromUpperLayer
scalar SingleCell.eNodeB.nic.mac 	receivedPacketFromUpperLayer:sum(packetBytes) 	378818434
attr interpolationmode  none
attr source  receivedPacketFromUpperLayer
scalar SingleCell.ue[0].nic.mac 	averageCqiUl:lteAvg 	6.520942408377
attr source  averageCqiUl
attr title  "Average Cqi reported in UL, lteAvg"
attr unit  cqi
scalar SingleCell.ue[1].nic.mac 	averageCqiUl:lteAvg 	5.2979591836735
attr source  averageCqiUl
attr title  "Average Cqi reported in UL, lteAvg"
attr unit  cqi
statistic SingleCell.eNodeB.pppIf.queue 	queueingTime:histogram
field count 185
field mean 0
field stddev 0
field sum 0
field sqrsum 0
field min 0
field max 0
attr interpolationmode  none
attr title  "queueing time, histogram"
bin	-INF	0
bin	-0.5	0
bin	-0.46666666666667	0
bin	-0.43333333333333	0
bin	-0.4	0
bin	-0.36666666666667	0
bin	-0.33333333333333	0
bin	-0.3	0
bin	-0.26666666666667	0
bin	-0.23333333333333	0
bin	-0.2	0
bin	-0.16666666666667	0
bin	-0.13333333333333	0
bin	-0.1	0
bin	-0.066666666666667	0
bin	-0.033333333333333	0
bin	0	185
bin	0.033333333333333	0
bin	0.066666666666667	0
bin	0.1	0
bin	0.13333333333333	0
bin	0.16666666666667	0
bin	0.2	0
bin	0.23333333333333	0
bin	0.26666666666667	0
bin	0.3	0
bin	0.33333333333333	0
bin	0.36666666666667	0
bin	0.4	0
bin	0.43333333333333	0
bin	0.46666666666667	0
bin	0.5	0
scalar SingleCell.eNodeB.pppIf.queue 	dropPk:count 	0
attr interpolationmode  none
attr source  dropPkByQueue
attr title  "dropped packets, count"
scalar SingleCell.eNodeB.pppIf.queue 	dropPk:sum(packetBytes) 	0
attr interpolationmode  none
attr source  dropPkByQueue
attr title  "dropped packets, sum(packetBytes)"
scalar SingleCell.eNodeB.pppIf.queue 	queueLength:max 	0
attr interpolationmode  sample-hold
attr title  "queue length, max"
scalar SingleCell.eNodeB.pppIf.queue 	queueLength:timeavg 	0
attr interpolationmode  sample-hold
attr title  "queue length, timeavg"
scalar SingleCell.eNodeB.pppIf.queue 	rcvdPk:count 	185
attr interpolationmode  none
attr title  "received packets, count"
scalar SingleCell.eNodeB.pppIf.queue 	rcvdPk:sum(packetBytes) 	11655
attr interpolationmode  none
attr title  "received packets, sum(packetBytes)"
scalar SingleCell.eNodeB.pppIf.ppp 	txState:timeavg 	5.18e-08
attr interpolationmode  sample-hold
attr title  "tx state, timeavg"
scalar SingleCell.eNodeB.pppIf.ppp 	droppedPkIfaceDown:count 	0
attr interpolationmode  none
attr source  dropPkIfaceDown
attr title  "packets dropped/interface down, count"
scalar SingleCell.eNodeB.pppIf.ppp 	droppedPkIfaceDown:sum(packetBytes) 	0
attr interpolationmode  none
attr source  dropPkIfaceDown
attr title  "packets dropped/interface down, sum(packetBytes)"
scalar SingleCell.eNodeB.pppIf.ppp 	droppedPkBitError:count 	0
attr interpolationmode  none
attr source  dropPkBitError
attr title  "packets dropped/bit error, count"
scalar SingleCell.eNodeB.pppIf.ppp 	droppedPkBitError:sum(packetBytes) 	0
attr interpolationmode  none
attr source  dropPkBitError
attr title  "packets dropped/bit error, sum(packetBytes)"
scalar SingleCell.eNodeB.pppIf.ppp 	rxPkOk:count 	183922
attr interpolationmode  none
attr source  rxPkOk
attr title  "packets received OK, count"
scalar SingleCell.eNodeB.pppIf.ppp 	rxPkOk:sum(packetBytes) 	195509086
attr interpolationmode  none
attr source  rxPkOk
attr title  "packets received OK, sum(packetBytes)"
scalar SingleCell.eNodeB.pppIf.ppp 	txPk:count 	185
attr interpolationmode  none
attr source  packetSentToLower
attr title  "packets transmitted, count"
scalar SingleCell.eNodeB.pppIf.ppp 	txPk:sum(packetBytes) 	12950
attr interpolationmode  none
attr source  packetSentToLower
attr title  "packets transmitted, sum(packetBytes)"
scalar SingleCell.eNodeB.pppIf.ppp 	rcvdPkFromHL:count 	185
attr interpolationmode  none
attr source  packetReceivedFromUpper
attr title  "packets received from higher layer, count"
scalar SingleCell.eNodeB.pppIf.ppp 	rcvdPkFromHL:sum(packetBytes) 	11655
attr interpolationmode  none
attr source  packetReceivedFromUpper
attr title  "packets received from higher layer, sum(packetBytes)"
scalar SingleCell.eNodeB.pppIf.ppp 	passedUpPk:count 	183922
attr interpolationmode  none
attr source  packetSentToUpper
attr title  "packets passed to higher layer, count"
scalar SingleCell.eNodeB.pppIf.ppp 	passedUpPk:sum(packetBytes) 	194221632
attr interpolationmode  none
attr source  packetSentToUpper
attr title  "packets passed to higher layer, sum(packetBytes)"
scalar SingleCell.eNodeB.networkLayer.arp 	failedARPResolution:count 	0
attr title  "ARP failed resolutions, count"
scalar SingleCell.eNodeB.networkLayer.arp 	completedARPResolution:count 	0
attr title  "ARP completed resolutions, count"
scalar SingleCell.eNodeB.networkLayer.arp 	initiatedARPResolution:count 	0
attr title  "ARP initiated resolutions, count"
scalar SingleCell.eNodeB.networkLayer.arp 	sentReply:count 	0
attr title  "ARP replies sent, count"
scalar SingleCell.eNodeB.networkLayer.arp 	sentReq:count 	0
attr title  "ARP request sent, count"
scalar SingleCell.eNodeB.udp 	droppedPkBadChecksum:count 	0
attr interpolationmode  none
attr title  "packets dropped (checksum error), count"
scalar SingleCell.eNodeB.udp 	droppedPkWrongPort:count 	0
attr interpolationmode  none
attr title  "packets dropped (wrong port), count"
scalar SingleCell.eNodeB.udp 	passedUpPk:count 	183922
attr interpolationmode  none
attr title  "packets passed up, count"
scalar SingleCell.eNodeB.udp 	rcvdPk:count 	183922
attr interpolationmode  none
attr source  rcvdPk
attr title  "packets received, count"
scalar SingleCell.eNodeB.udp 	rcvdPk:sum(packetBytes) 	190543192
attr interpolationmode  none
attr source  rcvdPk
attr title  "packets received, sum(packetBytes)"
scalar SingleCell.eNodeB.udp 	sentPk:count 	185
attr interpolationmode  none
attr source  sentPk
attr title  "packets sent, count"
scalar SingleCell.eNodeB.udp 	sentPk:sum(packetBytes) 	7955
attr interpolationmode  none
attr source  sentPk
attr title  "packets sent, sum(packetBytes)"
statistic SingleCell.ue[0].udpApp[0] 	endToEndDelay:stats
field count 48
field mean 4.0590833333333
field stddev 0.23974683751676
field sum 194.836
field sqrsum 793.557052
field min 4.006
field max 5.493
attr interpolationmode  none
attr source  segmentCompletionTime
attr title  "end-to-end delay, stats"
statistic SingleCell.ue[0].udpApp[1] 	endToEndDelay:stats
field count 45
field mean 4.0189111111111
field stddev 0.045175829328904
field sum 180.851
field sqrsum 726.913891
field min 4.006
field max 4.311
attr interpolationmode  none
attr source  segmentCompletionTime
attr title  "end-to-end delay, stats"
statistic SingleCell.ue[0].udpApp[2] 	endToEndDelay:stats
field count 43
field mean 4.0221627906977
field stddev 0.083326932201575
field sum 172.953
field sqrsum 695.936743
field min 4.006
field max 4.555
attr interpolationmode  none
attr source  segmentCompletionTime
attr title  "end-to-end delay, stats"
scalar SingleCell.ue[0].udp 	droppedPkBadChecksum:count 	0
attr interpolationmode  none
attr title  "packets dropped (checksum error), count"
scalar SingleCell.ue[0].udp 	droppedPkWrongPort:count 	0
attr interpolationmode  none
attr title  "packets dropped (wrong port), count"
scalar SingleCell.ue[0].udp 	passedUpPk:count 	138036
attr interpolationmode  none
attr title  "packets passed up, count"
scalar SingleCell.ue[0].udp 	rcvdPk:count 	138036
attr interpolationmode  none
attr source  rcvdPk
attr title  "packets received, count"
scalar SingleCell.ue[0].udp 	rcvdPk:sum(packetBytes) 	139140288
attr interpolationmode  none
attr source  rcvdPk
attr title  "packets received, sum(packetBytes)"
scalar SingleCell.ue[0].udp 	sentPk:count 	139
attr interpolationmode  none
attr source  sentPk
attr title  "packets sent, count"
scalar SingleCell.ue[0].udp 	sentPk:sum(packetBytes) 	2085
attr interpolationmode  none
attr source  sentPk
attr title  "packets sent, sum(packetBytes)"
scalar SingleCell.ue[0].nic.pdcpRrc 	sentPacketToLowerLayer:count 	139
attr interpolationmode  none
attr source  sentPacketToLowerLayer
scalar SingleCell.ue[0].nic.pdcpRrc 	sentPacketToLowerLayer:sum(packetBytes) 	5004
attr interpolationmode  none
attr source  sentPacketToLowerLayer
scalar SingleCell.ue[0].nic.pdcpRrc 	sentPacketToUpperLayer:count 	138036
attr interpolationmode  none
attr source  sentPacketToUpperLayer
scalar SingleCell.ue[0].nic.pdcpRrc 	sentPacketToUpperLayer:sum(packetBytes) 	141901008
attr interpolationmode  none
attr source  sentPacketToUpperLayer
scalar SingleCell.ue[0].nic.pdcpRrc 	receivedPacketFromLowerLayer:count 	138036
attr interpolationmode  none
attr source  receivedPacketFromLowerLayer
scalar SingleCell.ue[0].nic.pdcpRrc 	receivedPacketFromLowerLayer:sum(packetBytes) 	142039044
attr interpolationmode  none
attr source  receivedPacketFromLowerLayer
scalar SingleCell.ue[0].nic.pdcpRrc 	receivedPacketFromUpperLayer:count 	139
attr interpolationmode  none
attr source  receivedPacketFromUpperLayer
scalar SingleCell.ue[0].nic.pdcpRrc 	receivedPacketFromUpperLayer:sum(packetBytes) 	4865
attr interpolationmode  none
attr source  receivedPacketFromUpperLayer
scalar SingleCell.ue[0].nic.rlc.um 	rlcPduPacketLossDl:lteAvg 	0
attr source  rlcPduPacketLossDl
attr title  "rlc Packet Loss, lteAvg"
attr unit  ""
scalar SingleCell.ue[0].nic.rlc.um 	rlcPduPacketLossUl:lteAvg 	0
attr source  rlcPduPacketLossUl
attr title  "rlc Packet Loss, lteAvg"
attr unit  ""
scalar SingleCell.ue[0].nic.rlc.um 	rlcPacketLossTotal:lteAvg 	0.24964022916723
attr source  rlcPacketLossTotal
attr title  "rlc Packet Loss, lteAvg"
attr unit  ""
scalar SingleCell.ue[0].nic.rlc.um 	rlcPacketLossDl:lteAvg 	0.24982880993011
attr source  rlcPacketLossDl
attr title  "rlc Packet Loss, lteAvg"
attr unit  ""
scalar SingleCell.ue[0].nic.rlc.um 	rlcPacketLossUl:lteAvg 	0
attr source  rlcPacketLossUl
attr title  "rlc Packet Loss, lteAvg"
attr unit  ""
scalar SingleCell.ue[0].nic.rlc.um 	rlcPduThroughputUl:lteRate 	27.738494484626
attr source  rlcPduThroughputUl
attr title  "Throughput at the rlc layer UL, lteRate"
attr unit  Bps
scalar SingleCell.ue[0].nic.rlc.um 	rlcPduDelayUl:lteAvg 	0.0041311475409836
attr source  rlcPduDelayUl
attr title  "Delay at the rlc layer UL, lteAvg"
attr unit  s
scalar SingleCell.ue[0].nic.rlc.um 	rlcPduThroughputDl:lteRate 	718488.29691588
attr source  rlcPduThroughputDl
attr title  "Throughput at the rlc layer DL, lteRate"
attr unit  Bps
scalar SingleCell.ue[0].nic.rlc.um 	rlcPduDelayDl:lteAvg 	0.0040086820695192
attr source  rlcPduDelayDl
attr title  "Delay at the rlc layer UL, lteAvg"
attr unit  s
scalar SingleCell.ue[0].nic.rlc.um 	rlcThroughputUl:lteRate 	25.274386702157
attr source  rlcThroughputUl
attr title  "Throughput at the rlc layer UL, lteRate"
attr unit  Bps
scalar SingleCell.ue[0].nic.rlc.um 	rlcDelayUl:lteAvg 	0.033892086330935
attr source  rlcDelayUl
attr title  "Delay at the rlc layer UL, lteAvg"
attr unit  s
scalar SingleCell.ue[0].nic.rlc.um 	rlcThroughputDl:lteRate 	717434.13037549
attr source  rlcThroughputDl
attr title  "Throughput at the rlc layer DL, lteRate"
attr unit  Bps
scalar SingleCell.ue[0].nic.rlc.um 	rlcDelayDl:lteAvg 	0.0050177559604197
attr source  rlcDelayDl
attr title  "Delay at the rlc layer UL, lteAvg"
attr unit  s
scalar SingleCell.ue[0].nic.mac 	measuredItbs:mean 	-nan
attr source  measuredItbs
attr title  "TBS index, mean"
attr unit  ""
scalar SingleCell.ue[0].nic.mac 	harqErrorRate_4th_D2D:mean 	-nan
attr source  harqErrorRate_4th_D2D
attr title  "Harq Error Rate D2D, mean"
attr unit  ""
scalar SingleCell.ue[0].nic.mac 	harqErrorRate_4th_Dl:mean 	-nan
attr source  harqErrorRate_4th_Dl
attr title  "Harq Error Rate Dl, mean"
attr unit  ""
scalar SingleCell.ue[0].nic.mac 	harqErrorRate_4th_Ul:mean 	-nan
attr source  harqErrorRate_4th_Ul
attr title  "Harq Error Rate Dl, mean"
attr unit  ""
scalar SingleCell.ue[0].nic.mac 	harqErrorRate_3rd_D2D:mean 	-nan
attr source  harqErrorRate_3rd_D2D
attr title  "Harq Error Rate D2D, mean"
attr unit  ""
scalar SingleCell.ue[0].nic.mac 	harqErrorRate_3rd_Dl:mean 	-nan
attr source  harqErrorRate_3rd_Dl
attr title  "Harq Error Rate Dl, mean"
attr unit  ""
scalar SingleCell.ue[0].nic.mac 	harqErrorRate_3rd_Ul:mean 	-nan
attr source  harqErrorRate_3rd_Ul
attr title  "Harq Error Rate Dl, mean"
attr unit  ""
scalar SingleCell.ue[0].nic.mac 	harqErrorRate_2nd_D2D:mean 	-nan
attr source  harqErrorRate_2nd_D2D
attr title  "Harq Error Rate D2D, mean"
attr unit  ""
scalar SingleCell.ue[0].nic.mac 	harqErrorRate_2nd_Dl:mean 	0
attr source  harqErrorRate_2nd_Dl
attr title  "Harq Error Rate Dl, mean"
attr unit  ""
scalar SingleCell.ue[0].nic.mac 	harqErrorRate_2nd_Ul:mean 	0
attr source  harqErrorRate_2nd_Ul
attr title  "Harq Error Rate Dl, mean"
attr unit  ""
scalar SingleCell.ue[0].nic.mac 	harqErrorRate_1st_D2D:mean 	-nan
attr source  harqErrorRate_1st_D2D
attr title  "Harq Error Rate D2D, mean"
attr unit  ""
scalar SingleCell.ue[0].nic.mac 	harqErrorRate_1st_Dl:mean 	0.0014470115856755
attr source  harqErrorRate_1st_Dl
attr title  "Harq Error Rate Dl, mean"
attr unit  ""
scalar SingleCell.ue[0].nic.mac 	harqErrorRate_1st_Ul:mean 	0.010582010582011
attr source  harqErrorRate_1st_Ul
attr title  "Harq Error Rate Dl, mean"
attr unit  ""
scalar SingleCell.ue[0].nic.mac 	harqErrorRateD2D:mean 	-nan
attr source  harqErrorRateD2D
attr title  "Harq Error Rate D2D, mean"
attr unit  ""
scalar SingleCell.ue[0].nic.mac 	harqErrorRateDl:mean 	0.001444920768583
attr source  harqErrorRateDl
attr title  "Harq Error Rate Dl, mean"
attr unit  ""
scalar SingleCell.ue[0].nic.mac 	harqErrorRateUl:mean 	0.010471204188482
attr source  harqErrorRateUl
attr title  "Harq Error Rate Dl, mean"
attr unit  ""
scalar SingleCell.ue[0].nic.mac 	macPacketLossD2D:mean 	-nan
attr source  macPacketLossD2D
attr title  "Mac Packet Loss D2D, mean"
attr unit  ""
scalar SingleCell.ue[0].nic.mac 	macPacketLossDl:mean 	0
attr source  macPacketLossDl
attr title  "Mac Packet Loss, mean"
attr unit  ""
scalar SingleCell.ue[0].nic.mac 	macPacketLossUl:mean 	0
attr source  macPacketLossUl
attr title  "Mac Packet Loss, mean"
attr unit  ""
scalar SingleCell.ue[0].nic.mac 	macCellPacketLossD2D:mean 	-nan
attr source  macCellPacketLossD2D
attr title  "Mac Cell Packet Loss D2D, mean"
attr unit  ""
scalar SingleCell.ue[0].nic.mac 	macCellPacketLossUl:mean 	-nan
attr source  macCellPacketLossUl
attr title  "Mac Cell Packet Loss, mean"
attr unit  ""
scalar SingleCell.ue[0].nic.mac 	macCellPacketLossDl:mean 	-nan
attr source  macCellPacketLossDl
attr title  "Mac Cell Packet Loss, mean"
attr unit  ""
scalar SingleCell.ue[0].nic.mac 	macThroughputDl:lteRate 	719542.46345627
attr source  macThroughputDl
attr title  "Throughput at the MAC layer DL, lteRate"
attr unit  Bps
scalar SingleCell.ue[0].nic.mac 	macDelayDl:lteAvg 	0.0040086820695192
attr source  macDelayDl
attr title  "Delay at the MAC layer UL, lteAvg"
attr unit  s
scalar SingleCell.ue[0].nic.mac 	sentPacketToLowerLayer:count 	105150
attr interpolationmode  none
attr source  sentPacketToLowerLayer
scalar SingleCell.ue[0].nic.mac 	sentPacketToLowerLayer:sum(packetBytes) 	6323
attr interpolationmode  none
attr source  sentPacketToLowerLayer
scalar SingleCell.ue[0].nic.mac 	sentPacketToUpperLayer:count 	106991
attr interpolationmode  none
attr source  sentPacketToUpperLayer
scalar SingleCell.ue[0].nic.mac 	sentPacketToUpperLayer:sum(packetBytes) 	142247750
attr interpolationmode  none
attr source  sentPacketToUpperLayer
scalar SingleCell.ue[0].nic.mac 	receivedPacketFromLowerLayer:count 	213759
attr interpolationmode  none
attr source  receivedPacketFromLowerLayer
scalar SingleCell.ue[0].nic.mac 	receivedPacketFromLowerLayer:sum(packetBytes) 	142694771
attr interpolationmode  none
attr source  receivedPacketFromLowerLayer
scalar SingleCell.ue[0].nic.mac 	receivedPacketFromUpperLayer:count 	2777
attr interpolationmode  none
attr source  receivedPacketFromUpperLayer
scalar SingleCell.ue[0].nic.mac 	receivedPacketFromUpperLayer:sum(packetBytes) 	10496
attr interpolationmode  none
attr source  receivedPacketFromUpperLayer
scalar SingleCell.ue[0].nic.mac 	averageCqiDl:lteAvg 	14.916474494531
attr source  averageCqiDl
attr title  "Average Cqi reported in DL, lteAvg"
attr unit  cqi
scalar SingleCell.ue[0].networkLayer.arp 	failedARPResolution:count 	0
attr title  "ARP failed resolutions, count"
scalar SingleCell.ue[0].networkLayer.arp 	completedARPResolution:count 	0
attr title  "ARP completed resolutions, count"
scalar SingleCell.ue[0].networkLayer.arp 	initiatedARPResolution:count 	0
attr title  "ARP initiated resolutions, count"
scalar SingleCell.ue[0].networkLayer.arp 	sentReply:count 	0
attr title  "ARP replies sent, count"
scalar SingleCell.ue[0].networkLayer.arp 	sentReq:count 	0
attr title  "ARP request sent, count"
statistic SingleCell.ue[1].udpApp[0] 	endToEndDelay:stats
field count 46
field mean 4.0132173913043
field stddev 0.01186575472841
field sum 184.608
field sqrsum 740.878372
field min 4.009
field max 4.089
attr interpolationmode  none
attr source  segmentCompletionTime
attr title  "end-to-end delay, stats"
statistic SingleCell.ue[1].udpApp[1] 	endToEndDelay:stats
field count 44
field mean 4.0105681818182
field stddev 0.013375433446277
field sum 176.465
field sqrsum 707.732607
field min 4.006
field max 4.095
attr interpolationmode  none
attr source  segmentCompletionTime
attr title  "end-to-end delay, stats"
statistic SingleCell.ue[1].udpApp[2] 	endToEndDelay:stats
field count 41
field mean 4.0491463414634
field stddev 0.23916516897072
field sum 166.015
field sqrsum 674.507029
field min 4.009
field max 5.543
attr interpolationmode  none
attr source  segmentCompletionTime
attr title  "end-to-end delay, stats"
scalar SingleCell.ue[1].udp 	droppedPkBadChecksum:count 	0
attr interpolationmode  none
attr title  "packets dropped (checksum error), count"
scalar SingleCell.ue[1].udp 	droppedPkWrongPort:count 	0
attr interpolationmode  none
attr title  "packets dropped (wrong port), count"
scalar SingleCell.ue[1].udp 	passedUpPk:count 	45970
attr interpolationmode  none
attr title  "packets passed up, count"
scalar SingleCell.ue[1].udp 	rcvdPk:count 	45970
attr interpolationmode  none
attr source  rcvdPk
attr title  "packets received, count"
scalar SingleCell.ue[1].udp 	rcvdPk:sum(packetBytes) 	46250376
attr interpolationmode  none
attr source  rcvdPk
attr title  "packets received, sum(packetBytes)"
scalar SingleCell.ue[1].udp 	sentPk:count 	134
attr interpolationmode  none
attr source  sentPk
attr title  "packets sent, count"
scalar SingleCell.ue[1].udp 	sentPk:sum(packetBytes) 	2010
attr interpolationmode  none
attr source  sentPk
attr title  "packets sent, sum(packetBytes)"
scalar SingleCell.ue[1].nic.pdcpRrc 	sentPacketToLowerLayer:count 	134
attr interpolationmode  none
attr source  sentPacketToLowerLayer
scalar SingleCell.ue[1].nic.pdcpRrc 	sentPacketToLowerLayer:sum(packetBytes) 	4824
attr interpolationmode  none
attr source  sentPacketToLowerLayer
scalar SingleCell.ue[1].nic.pdcpRrc 	sentPacketToUpperLayer:count 	45970
attr interpolationmode  none
attr source  sentPacketToUpperLayer
scalar SingleCell.ue[1].nic.pdcpRrc 	sentPacketToUpperLayer:sum(packetBytes) 	47169776
attr interpolationmode  none
attr source  sentPacketToUpperLayer
scalar SingleCell.ue[1].nic.pdcpRrc 	receivedPacketFromLowerLayer:count 	45970
attr interpolationmode  none
attr source  receivedPacketFromLowerLayer
scalar SingleCell.ue[1].nic.pdcpRrc 	receivedPacketFromLowerLayer:sum(packetBytes) 	47215746
attr interpolationmode  none
attr source  receivedPacketFromLowerLayer
scalar SingleCell.ue[1].nic.pdcpRrc 	receivedPacketFromUpperLayer:count 	134
attr interpolationmode  none
attr source  receivedPacketFromUpperLayer
scalar SingleCell.ue[1].nic.pdcpRrc 	receivedPacketFromUpperLayer:sum(packetBytes) 	4690
attr interpolationmode  none
attr source  receivedPacketFromUpperLayer
scalar SingleCell.ue[1].nic.rlc.um 	rlcPduPacketLossDl:lteAvg 	0
attr source  rlcPduPacketLossDl
attr title  "rlc Packet Loss, lteAvg"
attr unit  ""
scalar SingleCell.ue[1].nic.rlc.um 	rlcPduPacketLossUl:lteAvg 	0
attr source  rlcPduPacketLossUl
attr title  "rlc Packet Loss, lteAvg"
attr unit  ""
scalar SingleCell.ue[1].nic.rlc.um 	rlcPacketLossTotal:lteAvg 	0.74962256568443
attr source  rlcPacketLossTotal
attr title  "rlc Packet Loss, lteAvg"
attr unit  ""
scalar SingleCell.ue[1].nic.rlc.um 	rlcPacketLossDl:lteAvg 	0.75016847459838
attr source  rlcPacketLossDl
attr title  "rlc Packet Loss, lteAvg"
attr unit  ""
scalar SingleCell.ue[1].nic.rlc.um 	rlcPacketLossUl:lteAvg 	0
attr source  rlcPacketLossUl
attr title  "rlc Packet Loss, lteAvg"
attr unit  ""
scalar SingleCell.ue[1].nic.rlc.um 	rlcPduThroughputUl:lteRate 	27.469254010809
attr source  rlcPduThroughputUl
attr title  "Throughput at the rlc layer UL, lteRate"
attr unit  Bps
scalar SingleCell.ue[1].nic.rlc.um 	rlcPduDelayUl:lteAvg 	0.0040470588235294
attr source  rlcPduDelayUl
attr title  "Delay at the rlc layer UL, lteAvg"
attr unit  s
scalar SingleCell.ue[1].nic.rlc.um 	rlcPduThroughputDl:lteRate 	251653.85904344
attr source  rlcPduThroughputDl
attr title  "Throughput at the rlc layer DL, lteRate"
attr unit  Bps
scalar SingleCell.ue[1].nic.rlc.um 	rlcPduDelayDl:lteAvg 	0.0040063977020484
attr source  rlcPduDelayDl
attr title  "Delay at the rlc layer UL, lteAvg"
attr unit  s
scalar SingleCell.ue[1].nic.rlc.um 	rlcThroughputUl:lteRate 	25.660666411337
attr source  rlcThroughputUl
attr title  "Throughput at the rlc layer UL, lteRate"
attr unit  Bps
scalar SingleCell.ue[1].nic.rlc.um 	rlcDelayUl:lteAvg 	0.019597014925373
attr source  rlcDelayUl
attr title  "Delay at the rlc layer UL, lteAvg"
attr unit  s
scalar SingleCell.ue[1].nic.rlc.um 	rlcThroughputDl:lteRate 	251164.95289568
attr source  rlcThroughputDl
attr title  "Throughput at the rlc layer DL, lteRate"
attr unit  Bps
scalar SingleCell.ue[1].nic.rlc.um 	rlcDelayDl:lteAvg 	0.0050056442546384
attr source  rlcDelayDl
attr title  "Delay at the rlc layer UL, lteAvg"
attr unit  s
scalar SingleCell.ue[1].nic.mac 	measuredItbs:mean 	-nan
attr source  measuredItbs
attr title  "TBS index, mean"
attr unit  ""
scalar SingleCell.ue[1].nic.mac 	harqErrorRate_4th_D2D:mean 	-nan
attr source  harqErrorRate_4th_D2D
attr title  "Harq Error Rate D2D, mean"
attr unit  ""
scalar SingleCell.ue[1].nic.mac 	harqErrorRate_4th_Dl:mean 	-nan
attr source  harqErrorRate_4th_Dl
attr title  "Harq Error Rate Dl, mean"
attr unit  ""
scalar SingleCell.ue[1].nic.mac 	harqErrorRate_4th_Ul:mean 	-nan
attr source  harqErrorRate_4th_Ul
attr title  "Harq Error Rate Dl, mean"
attr unit  ""
scalar SingleCell.ue[1].nic.mac 	harqErrorRate_3rd_D2D:mean 	-nan
attr source  harqErrorRate_3rd_D2D
attr title  "Harq Error Rate D2D, mean"
attr unit  ""
scalar SingleCell.ue[1].nic.mac 	harqErrorRate_3rd_Dl:mean 	-nan
attr source  harqErrorRate_3rd_Dl
attr title  "Harq Error Rate Dl, mean"
attr unit  ""
scalar SingleCell.ue[1].nic.mac 	harqErrorRate_3rd_Ul:mean 	-nan
attr source  harqErrorRate_3rd_Ul
attr title  "Harq Error Rate Dl, mean"
attr unit  ""
scalar SingleCell.ue[1].nic.mac 	harqErrorRate_2nd_D2D:mean 	-nan
attr source  harqErrorRate_2nd_D2D
attr title  "Harq Error Rate D2D, mean"
attr unit  ""
scalar SingleCell.ue[1].nic.mac 	harqErrorRate_2nd_Dl:mean 	0
attr source  harqErrorRate_2nd_Dl
attr title  "Harq Error Rate Dl, mean"
attr unit  ""
scalar SingleCell.ue[1].nic.mac 	harqErrorRate_2nd_Ul:mean 	0
attr source  harqErrorRate_2nd_Ul
attr title  "Harq Error Rate Dl, mean"
attr unit  ""
scalar SingleCell.ue[1].nic.mac 	harqErrorRate_1st_D2D:mean 	-nan
attr source  harqErrorRate_1st_D2D
attr title  "Harq Error Rate D2D, mean"
attr unit  ""
scalar SingleCell.ue[1].nic.mac 	harqErrorRate_1st_Dl:mean 	0.0010662836749793
attr source  harqErrorRate_1st_Dl
attr title  "Harq Error Rate Dl, mean"
attr unit  ""
scalar SingleCell.ue[1].nic.mac 	harqErrorRate_1st_Ul:mean 	0.0020449897750511
attr source  harqErrorRate_1st_Ul
attr title  "Harq Error Rate Dl, mean"
attr unit  ""
scalar SingleCell.ue[1].nic.mac 	harqErrorRateD2D:mean 	-nan
attr source  harqErrorRateD2D
attr title  "Harq Error Rate D2D, mean"
attr unit  ""
scalar SingleCell.ue[1].nic.mac 	harqErrorRateDl:mean 	0.0010651479251353
attr source  harqErrorRateDl
attr title  "Harq Error Rate Dl, mean"
attr unit  ""
scalar SingleCell.ue[1].nic.mac 	harqErrorRateUl:mean 	0.0020408163265306
attr source  harqErrorRateUl
attr title  "Harq Error Rate Dl, mean"
attr unit  ""
scalar SingleCell.ue[1].nic.mac 	macPacketLossD2D:mean 	-nan
attr source  macPacketLossD2D
attr title  "Mac Packet Loss D2D, mean"
attr unit  ""
scalar SingleCell.ue[1].nic.mac 	macPacketLossDl:mean 	0
attr source  macPacketLossDl
attr title  "Mac Packet Loss, mean"
attr unit  ""
scalar SingleCell.ue[1].nic.mac 	macPacketLossUl:mean 	0
attr source  macPacketLossUl
attr title  "Mac Packet Loss, mean"
attr unit  ""
scalar SingleCell.ue[1].nic.mac 	macCellPacketLossD2D:mean 	-nan
attr source  macCellPacketLossD2D
attr title  "Mac Cell Packet Loss D2D, mean"
attr unit  ""
scalar SingleCell.ue[1].nic.mac 	macCellPacketLossUl:mean 	-nan
attr source  macCellPacketLossUl
attr title  "Mac Cell Packet Loss, mean"
attr unit  ""
scalar SingleCell.ue[1].nic.mac 	macCellPacketLossDl:mean 	-nan
attr source  macCellPacketLossDl
attr title  "Mac Cell Packet Loss, mean"
attr unit  ""
scalar SingleCell.ue[1].nic.mac 	macThroughputDl:lteRate 	252142.76519121
attr source  macThroughputDl
attr title  "Throughput at the MAC layer DL, lteRate"
attr unit  Bps
scalar SingleCell.ue[1].nic.mac 	macDelayDl:lteAvg 	0.0040063977020484
attr source  macDelayDl
attr title  "Delay at the MAC layer UL, lteAvg"
attr unit  s
scalar SingleCell.ue[1].nic.mac 	sentPacketToLowerLayer:count 	46898
attr interpolationmode  none
attr source  sentPacketToLowerLayer
scalar SingleCell.ue[1].nic.mac 	sentPacketToLowerLayer:sum(packetBytes) 	6182
attr interpolationmode  none
attr source  sentPacketToLowerLayer
scalar SingleCell.ue[1].nic.mac 	sentPacketToUpperLayer:count 	46443
attr interpolationmode  none
attr source  sentPacketToUpperLayer
scalar SingleCell.ue[1].nic.mac 	sentPacketToUpperLayer:sum(packetBytes) 	47307654
attr interpolationmode  none
attr source  sentPacketToUpperLayer
scalar SingleCell.ue[1].nic.mac 	receivedPacketFromLowerLayer:count 	136929
attr interpolationmode  none
attr source  receivedPacketFromLowerLayer
scalar SingleCell.ue[1].nic.mac 	receivedPacketFromLowerLayer:sum(packetBytes) 	47451212
attr interpolationmode  none
attr source  receivedPacketFromLowerLayer
scalar SingleCell.ue[1].nic.mac 	receivedPacketFromUpperLayer:count 	623
attr interpolationmode  none
attr source  receivedPacketFromUpperLayer
scalar SingleCell.ue[1].nic.mac 	receivedPacketFromUpperLayer:sum(packetBytes) 	9988
attr interpolationmode  none
attr source  receivedPacketFromUpperLayer
scalar SingleCell.ue[1].nic.mac 	averageCqiDl:lteAvg 	14.990326928093
attr source  averageCqiDl
attr title  "Average Cqi reported in DL, lteAvg"
attr unit  cqi
scalar SingleCell.ue[1].networkLayer.arp 	failedARPResolution:count 	0
attr title  "ARP failed resolutions, count"
scalar SingleCell.ue[1].networkLayer.arp 	completedARPResolution:count 	0
attr title  "ARP completed resolutions, count"
scalar SingleCell.ue[1].networkLayer.arp 	initiatedARPResolution:count 	0
attr title  "ARP initiated resolutions, count"
scalar SingleCell.ue[1].networkLayer.arp 	sentReply:count 	0
attr title  "ARP replies sent, count"
scalar SingleCell.ue[1].networkLayer.arp 	sentReq:count 	0
attr title  "ARP request sent, count"
run Scenario_4-4-20190320-11:46:19-32422
attr configname Scenario_4
attr datetime 20190320-11:46:19
attr experiment Scenario_4
attr inifile omnetpp.ini
attr iterationvars "$0=2, $1=true"
attr iterationvarsf 2,true-
attr measurement "$0=2, $1=true"
attr network SingleCell
attr processid 32422
attr repetition 0
attr replication #0
attr resultdir results
attr runnumber 4
attr seedset 4
param **.bufferSize (2s)
param **.channelControl.carrierFrequency 2100e+6Hz
param **.d2d (true)
param **.fbDelay 1
param **.feedbackComputation "xmldoc(\"config_channel.xml\")"
param **.mac.maxBytesPerTti 1KiB
param **.mac.queueSize 1MiB
param **.mac.schedulingDisciplineDl "\"MAXCI\""
param **.mac.schedulingDisciplineUl "\"MAXCI\""
param **.nic.phy.channelModel "xmldoc(\"config_channel.xml\")"
param **.packetInt 4ms
param **.routingRecorder.enabled false
param **.server.udpApp[*].typename "\"UDPVideoStreamServer\""
param **.server.udpApp[0].viewID 1
param **.server.udpApp[1].viewID 2
param **.server.udpApp[2].viewID 3
param **.ue[*].macCellId 1
param **.ue[*].masterId 1
param **.ue[*].udpApp[*].typename "\"UDPVideoStreamClient\""
param **.ue[*].udpApp[0].viewID 1
param **.ue[*].udpApp[1].viewID 2
param **.ue[*].udpApp[2].viewID 3
param **.ue[0].udpApp[0].startTime 2s
param **.ue[0].udpApp[1].startTime 16s
param **.ue[0].udpApp[2].startTime 25s
param **.ue[1].udpApp[0].startTime 12s
param **.ue[1].udpApp[1].startTime 20s
param **.ue[1].udpApp[2].startTime 30s
param *.numUe 2
param *.server.numUdpApps 3
param *.ue[*].mobility.constraintAreaMaxX 486m
param *.ue[*].mobility.constraintAreaMaxY 226m
param *.ue[*].mobility.constraintAreaMinX 457m
param *.ue[*].mobility.constraintAreaMinY 202m
param *.ue[*].mobility.initFromDisplayString false
param *.ue[*].mobility.initialX uniform(457m,486m)
param *.ue[*].mobility.initialY uniform(202m,226m)
param *.ue[*].mobility.initialZ 0
param *.ue[*].mobility.speed 1mps
param *.ue[*].mobilityType "\"LinearMobility\""
param *.ue[*].numUdpApps 3

scalar SingleCell.server.networkLayer.arp 	failedARPResolution:count 	0
attr title  "ARP failed resolutions, count"
scalar SingleCell.server.networkLayer.arp 	completedARPResolution:count 	0
attr title  "ARP completed resolutions, count"
scalar SingleCell.server.networkLayer.arp 	initiatedARPResolution:count 	0
attr title  "ARP initiated resolutions, count"
scalar SingleCell.server.networkLayer.arp 	sentReply:count 	0
attr title  "ARP replies sent, count"
scalar SingleCell.server.networkLayer.arp 	sentReq:count 	0
attr title  "ARP request sent, count"
scalar SingleCell.server.lo0.lo 	droppedPkBitError:count 	0
attr interpolationmode  none
attr source  dropPkBitError
attr title  "packets dropped/bit error, count"
scalar SingleCell.server.lo0.lo 	droppedPkBitError:sum(packetBytes) 	0
attr interpolationmode  none
attr source  dropPkBitError
attr title  "packets dropped/bit error, sum(packetBytes)"
scalar SingleCell.server.lo0.lo 	rcvdPkFromHL:count 	0
attr interpolationmode  none
attr source  packetReceivedFromUpper
attr title  "packets received from higher layer, count"
scalar SingleCell.server.lo0.lo 	rcvdPkFromHL:sum(packetBytes) 	0
attr interpolationmode  none
attr source  packetReceivedFromUpper
attr title  "packets received from higher layer, sum(packetBytes)"
scalar SingleCell.server.lo0.lo 	passedUpPk:count 	0
attr interpolationmode  none
attr source  packetSentToUpper
attr title  "packets passed to higher layer, count"
scalar SingleCell.server.lo0.lo 	passedUpPk:sum(packetBytes) 	0
attr interpolationmode  none
attr source  packetSentToUpper
attr title  "packets passed to higher layer, sum(packetBytes)"
statistic SingleCell.server.ppp[0].queue 	queueingTime:histogram
field count 260533
field mean 5.585924393451e-07
field stddev 6.8049798647114e-07
field sum 0.1455317639999
field sqrsum 2.0193945278373e-07
field min 0
field max 3.312e-06
attr interpolationmode  none
attr title  "queueing time, histogram"
bin	-INF	0
bin	-0.5	0
bin	-0.46666666666667	0
bin	-0.43333333333333	0
bin	-0.4	0
bin	-0.36666666666667	0
bin	-0.33333333333333	0
bin	-0.3	0
bin	-0.26666666666667	0
bin	-0.23333333333333	0
bin	-0.2	0
bin	-0.16666666666667	0
bin	-0.13333333333333	0
bin	-0.1	0
bin	-0.066666666666667	0
bin	-0.033333333333333	0
bin	0	260533
bin	0.033333333333333	0
bin	0.066666666666667	0
bin	0.1	0
bin	0.13333333333333	0
bin	0.16666666666667	0
bin	0.2	0
bin	0.23333333333333	0
bin	0.26666666666667	0
bin	0.3	0
bin	0.33333333333333	0
bin	0.36666666666667	0
bin	0.4	0
bin	0.43333333333333	0
bin	0.46666666666667	0
bin	0.5	0
scalar SingleCell.server.ppp[0].queue 	dropPk:count 	0
attr interpolationmode  none
attr source  dropPkByQueue
attr title  "dropped packets, count"
scalar SingleCell.server.ppp[0].queue 	dropPk:sum(packetBytes) 	0
attr interpolationmode  none
attr source  dropPkByQueue
attr title  "dropped packets, sum(packetBytes)"
scalar SingleCell.server.ppp[0].queue 	queueLength:max 	4
attr interpolationmode  sample-hold
attr title  "queue length, max"
scalar SingleCell.server.ppp[0].queue 	queueLength:timeavg 	0.00072765881999948
attr interpolationmode  sample-hold
attr title  "queue length, timeavg"
scalar SingleCell.server.ppp[0].queue 	rcvdPk:count 	260533
attr interpolationmode  none
attr title  "received packets, count"
scalar SingleCell.server.ppp[0].queue 	rcvdPk:sum(packetBytes) 	267827924
attr interpolationmode  none
attr title  "received packets, sum(packetBytes)"
scalar SingleCell.server.ppp[0].ppp 	txState:timeavg 	0.0010786066200028
attr interpolationmode  sample-hold
attr title  "tx state, timeavg"
scalar SingleCell.server.ppp[0].ppp 	droppedPkIfaceDown:count 	0
attr interpolationmode  none
attr source  dropPkIfaceDown
attr title  "packets dropped/interface down, count"
scalar SingleCell.server.ppp[0].ppp 	droppedPkIfaceDown:sum(packetBytes) 	0
attr interpolationmode  none
attr source  dropPkIfaceDown
attr title  "packets dropped/interface down, sum(packetBytes)"
scalar SingleCell.server.ppp[0].ppp 	droppedPkBitError:count 	0
attr interpolationmode  none
attr source  dropPkBitError
attr title  "packets dropped/bit error, count"
scalar SingleCell.server.ppp[0].ppp 	droppedPkBitError:sum(packetBytes) 	0
attr interpolationmode  none
attr source  dropPkBitError
attr title  "packets dropped/bit error, sum(packetBytes)"
scalar SingleCell.server.ppp[0].ppp 	rxPkOk:count 	262
attr interpolationmode  none
attr source  rxPkOk
attr title  "packets received OK, count"
scalar SingleCell.server.ppp[0].ppp 	rxPkOk:sum(packetBytes) 	11004
attr interpolationmode  none
attr source  rxPkOk
attr title  "packets received OK, sum(packetBytes)"
scalar SingleCell.server.ppp[0].ppp 	txPk:count 	260533
attr interpolationmode  none
attr source  packetSentToLower
attr title  "packets transmitted, count"
scalar SingleCell.server.ppp[0].ppp 	txPk:sum(packetBytes) 	269651655
attr interpolationmode  none
attr source  packetSentToLower
attr title  "packets transmitted, sum(packetBytes)"
scalar SingleCell.server.ppp[0].ppp 	rcvdPkFromHL:count 	260533
attr interpolationmode  none
attr source  packetReceivedFromUpper
attr title  "packets received from higher layer, count"
scalar SingleCell.server.ppp[0].ppp 	rcvdPkFromHL:sum(packetBytes) 	267827924
attr interpolationmode  none
attr source  packetReceivedFromUpper
attr title  "packets received from higher layer, sum(packetBytes)"
scalar SingleCell.server.ppp[0].ppp 	passedUpPk:count 	262
attr interpolationmode  none
attr source  packetSentToUpper
attr title  "packets passed to higher layer, count"
scalar SingleCell.server.ppp[0].ppp 	passedUpPk:sum(packetBytes) 	9170
attr interpolationmode  none
attr source  packetSentToUpper
attr title  "packets passed to higher layer, sum(packetBytes)"
scalar SingleCell.server.udpApp[0] 	reqStreamBytes:count 	97
attr interpolationmode  none
attr title  "requested stream bytes, count"
scalar SingleCell.server.udpApp[0] 	reqStreamBytes:sum 	97000000
attr interpolationmode  none
attr title  "requested stream bytes, sum"
scalar SingleCell.server.udpApp[0] 	sentPk:count 	96202
attr interpolationmode  none
attr source  sentPk
attr title  "packets sent, count"
scalar SingleCell.server.udpApp[0] 	sentPk:sum(packetBytes) 	96202000
attr interpolationmode  none
attr source  sentPk
attr title  "packets sent, sum(packetBytes)"
scalar SingleCell.server.udpApp[1] 	reqStreamBytes:count 	79
attr interpolationmode  none
attr title  "requested stream bytes, count"
scalar SingleCell.server.udpApp[1] 	reqStreamBytes:sum 	79000000
attr interpolationmode  none
attr title  "requested stream bytes, sum"
scalar SingleCell.server.udpApp[1] 	sentPk:count 	78707
attr interpolationmode  none
attr source  sentPk
attr title  "packets sent, count"
scalar SingleCell.server.udpApp[1] 	sentPk:sum(packetBytes) 	78707000
attr interpolationmode  none
attr source  sentPk
attr title  "packets sent, sum(packetBytes)"
scalar SingleCell.server.udpApp[2] 	reqStreamBytes:count 	86
attr interpolationmode  none
attr title  "requested stream bytes, count"
scalar SingleCell.server.udpApp[2] 	reqStreamBytes:sum 	86000000
attr interpolationmode  none
attr title  "requested stream bytes, sum"
scalar SingleCell.server.udpApp[2] 	sentPk:count 	85624
attr interpolationmode  none
attr source  sentPk
attr title  "packets sent, count"
scalar SingleCell.server.udpApp[2] 	sentPk:sum(packetBytes) 	85624000
attr interpolationmode  none
attr source  sentPk
attr title  "packets sent, sum(packetBytes)"
scalar SingleCell.server.udp 	droppedPkBadChecksum:count 	0
attr interpolationmode  none
attr title  "packets dropped (checksum error), count"
scalar SingleCell.server.udp 	droppedPkWrongPort:count 	0
attr interpolationmode  none
attr title  "packets dropped (wrong port), count"
scalar SingleCell.server.udp 	passedUpPk:count 	262
attr interpolationmode  none
attr title  "packets passed up, count"
scalar SingleCell.server.udp 	rcvdPk:count 	262
attr interpolationmode  none
attr source  rcvdPk
attr title  "packets received, count"
scalar SingleCell.server.udp 	rcvdPk:sum(packetBytes) 	3930
attr interpolationmode  none
attr source  rcvdPk
attr title  "packets received, sum(packetBytes)"
scalar SingleCell.server.udp 	sentPk:count 	260533
attr interpolationmode  none
attr source  sentPk
attr title  "packets sent, count"
scalar SingleCell.server.udp 	sentPk:sum(packetBytes) 	262617264
attr interpolationmode  none
attr source  sentPk
attr title  "packets sent, sum(packetBytes)"
scalar SingleCell.router.networkLayer.arp 	failedARPResolution:count 	0
attr title  "ARP failed resolutions, count"
scalar SingleCell.router.networkLayer.arp 	completedARPResolution:count 	0
attr title  "ARP completed resolutions, count"
scalar SingleCell.router.networkLayer.arp 	initiatedARPResolution:count 	0
attr title  "ARP initiated resolutions, count"
scalar SingleCell.router.networkLayer.arp 	sentReply:count 	0
attr title  "ARP replies sent, count"
scalar SingleCell.router.networkLayer.arp 	sentReq:count 	0
attr title  "ARP request sent, count"
scalar SingleCell.router.lo0.lo 	droppedPkBitError:count 	0
attr interpolationmode  none
attr source  dropPkBitError
attr title  "packets dropped/bit error, count"
scalar SingleCell.router.lo0.lo 	droppedPkBitError:sum(packetBytes) 	0
attr interpolationmode  none
attr source  dropPkBitError
attr title  "packets dropped/bit error, sum(packetBytes)"
scalar SingleCell.router.lo0.lo 	rcvdPkFromHL:count 	0
attr interpolationmode  none
attr source  packetReceivedFromUpper
attr title  "packets received from higher layer, count"
scalar SingleCell.router.lo0.lo 	rcvdPkFromHL:sum(packetBytes) 	0
attr interpolationmode  none
attr source  packetReceivedFromUpper
attr title  "packets received from higher layer, sum(packetBytes)"
scalar SingleCell.router.lo0.lo 	passedUpPk:count 	0
attr interpolationmode  none
attr source  packetSentToUpper
attr title  "packets passed to higher layer, count"
scalar SingleCell.router.lo0.lo 	passedUpPk:sum(packetBytes) 	0
attr interpolationmode  none
attr source  packetSentToUpper
attr title  "packets passed to higher layer, sum(packetBytes)"
statistic SingleCell.router.ppp[0].queue 	queueingTime:histogram
field count 262
field mean 0
field stddev 0
field sum 0
field sqrsum 0
field min 0
field max 0
attr interpolationmode  none
attr title  "queueing time, histogram"
bin	-INF	0
bin	-0.5	0
bin	-0.46666666666667	0
bin	-0.43333333333333	0
bin	-0.4	0
bin	-0.36666666666667	0
[...]
attr interpolationmode  none
attr source  rcvdPk
attr title  "packets received, sum(packetBytes)"
scalar SingleCell.ue[0].udp 	sentPk:count 	140
attr interpolationmode  none
attr source  sentPk
attr title  "packets sent, count"
scalar SingleCell.ue[0].udp 	sentPk:sum(packetBytes) 	2100
attr interpolationmode  none
attr source  sentPk
attr title  "packets sent, sum(packetBytes)"
scalar SingleCell.ue[0].nic.pdcpRrc 	sentPacketToLowerLayer:count 	140
attr interpolationmode  none
attr source  sentPacketToLowerLayer
scalar SingleCell.ue[0].nic.pdcpRrc 	sentPacketToLowerLayer:sum(packetBytes) 	5040
attr interpolationmode  none
attr source  sentPacketToLowerLayer
scalar SingleCell.ue[0].nic.pdcpRrc 	sentPacketToUpperLayer:count 	138802
attr interpolationmode  none
attr source  sentPacketToUpperLayer
scalar SingleCell.ue[0].nic.pdcpRrc 	sentPacketToUpperLayer:sum(packetBytes) 	142688456
attr interpolationmode  none
attr source  sentPacketToUpperLayer
scalar SingleCell.ue[0].nic.pdcpRrc 	receivedPacketFromLowerLayer:count 	138802
attr interpolationmode  none
attr source  receivedPacketFromLowerLayer
scalar SingleCell.ue[0].nic.pdcpRrc 	receivedPacketFromLowerLayer:sum(packetBytes) 	142827258
attr interpolationmode  none
attr source  receivedPacketFromLowerLayer
scalar SingleCell.ue[0].nic.pdcpRrc 	receivedPacketFromUpperLayer:count 	140
attr interpolationmode  none
attr source  receivedPacketFromUpperLayer
scalar SingleCell.ue[0].nic.pdcpRrc 	receivedPacketFromUpperLayer:sum(packetBytes) 	4900
attr interpolationmode  none
attr source  receivedPacketFromUpperLayer
scalar SingleCell.ue[0].nic.rlc.um 	rlcPduPacketLossDl:lteAvg 	0
attr source  rlcPduPacketLossDl
attr title  "rlc Packet Loss, lteAvg"
attr unit  ""
scalar SingleCell.ue[0].nic.rlc.um 	rlcPduPacketLossUl:lteAvg 	0
attr source  rlcPduPacketLossUl
attr title  "rlc Packet Loss, lteAvg"
attr unit  ""
scalar SingleCell.ue[0].nic.rlc.um 	rlcPacketLossTotal:lteAvg 	0.48937343118915
attr source  rlcPacketLossTotal
attr title  "rlc Packet Loss, lteAvg"
attr unit  ""
scalar SingleCell.ue[0].nic.rlc.um 	rlcPacketLossDl:lteAvg 	0.48962535069367
attr source  rlcPacketLossDl
attr title  "rlc Packet Loss, lteAvg"
attr unit  ""
scalar SingleCell.ue[0].nic.rlc.um 	rlcPacketLossUl:lteAvg 	0
attr source  rlcPacketLossUl
attr title  "rlc Packet Loss, lteAvg"
attr unit  ""
scalar SingleCell.ue[0].nic.rlc.um 	rlcPduThroughputUl:lteRate 	28.011232777082
attr source  rlcPduThroughputUl
attr title  "Throughput at the rlc layer UL, lteRate"
attr unit  Bps
scalar SingleCell.ue[0].nic.rlc.um 	rlcPduDelayUl:lteAvg 	0.004
attr source  rlcPduDelayUl
attr title  "Delay at the rlc layer UL, lteAvg"
attr unit  s
scalar SingleCell.ue[0].nic.rlc.um 	rlcPduThroughputDl:lteRate 	722531.46923788
attr source  rlcPduThroughputDl
attr title  "Throughput at the rlc layer DL, lteRate"
attr unit  Bps
scalar SingleCell.ue[0].nic.rlc.um 	rlcPduDelayDl:lteAvg 	0.0040018167245586
attr source  rlcPduDelayDl
attr title  "Delay at the rlc layer UL, lteAvg"
attr unit  s
scalar SingleCell.ue[0].nic.rlc.um 	rlcThroughputUl:lteRate 	25.455573962584
attr source  rlcThroughputUl
attr title  "Throughput at the rlc layer UL, lteRate"
attr unit  Bps
scalar SingleCell.ue[0].nic.rlc.um 	rlcDelayUl:lteAvg 	0.011721428571429
attr source  rlcDelayUl
attr title  "Delay at the rlc layer UL, lteAvg"
attr unit  s
scalar SingleCell.ue[0].nic.rlc.um 	rlcThroughputDl:lteRate 	721397.15233828
attr source  rlcThroughputDl
attr title  "Throughput at the rlc layer DL, lteRate"
attr unit  Bps
scalar SingleCell.ue[0].nic.rlc.um 	rlcDelayDl:lteAvg 	0.0050011747366138
attr source  rlcDelayDl
attr title  "Delay at the rlc layer UL, lteAvg"
attr unit  s
scalar SingleCell.ue[0].nic.mac 	measuredItbs:mean 	-nan
attr source  measuredItbs
attr title  "TBS index, mean"
attr unit  ""
scalar SingleCell.ue[0].nic.mac 	harqErrorRate_4th_D2D:mean 	-nan
attr source  harqErrorRate_4th_D2D
attr title  "Harq Error Rate D2D, mean"
attr unit  ""
scalar SingleCell.ue[0].nic.mac 	harqErrorRate_4th_Dl:mean 	-nan
attr source  harqErrorRate_4th_Dl
attr title  "Harq Error Rate Dl, mean"
attr unit  ""
scalar SingleCell.ue[0].nic.mac 	harqErrorRate_4th_Ul:mean 	-nan
attr source  harqErrorRate_4th_Ul
attr title  "Harq Error Rate Dl, mean"
attr unit  ""
scalar SingleCell.ue[0].nic.mac 	harqErrorRate_3rd_D2D:mean 	-nan
attr source  harqErrorRate_3rd_D2D
attr title  "Harq Error Rate D2D, mean"
attr unit  ""
scalar SingleCell.ue[0].nic.mac 	harqErrorRate_3rd_Dl:mean 	-nan
attr source  harqErrorRate_3rd_Dl
attr title  "Harq Error Rate Dl, mean"
attr unit  ""
scalar SingleCell.ue[0].nic.mac 	harqErrorRate_3rd_Ul:mean 	-nan
attr source  harqErrorRate_3rd_Ul
attr title  "Harq Error Rate Dl, mean"
attr unit  ""
scalar SingleCell.ue[0].nic.mac 	harqErrorRate_2nd_D2D:mean 	-nan
attr source  harqErrorRate_2nd_D2D
attr title  "Harq Error Rate D2D, mean"
attr unit  ""
scalar SingleCell.ue[0].nic.mac 	harqErrorRate_2nd_Dl:mean 	0
attr source  harqErrorRate_2nd_Dl
attr title  "Harq Error Rate Dl, mean"
attr unit  ""
scalar SingleCell.ue[0].nic.mac 	harqErrorRate_2nd_Ul:mean 	-nan
attr source  harqErrorRate_2nd_Ul
attr title  "Harq Error Rate Dl, mean"
attr unit  ""
scalar SingleCell.ue[0].nic.mac 	harqErrorRate_1st_D2D:mean 	-nan
attr source  harqErrorRate_1st_D2D
attr title  "Harq Error Rate D2D, mean"
attr unit  ""
scalar SingleCell.ue[0].nic.mac 	harqErrorRate_1st_Dl:mean 	0.00030278742541633
attr source  harqErrorRate_1st_Dl
attr title  "Harq Error Rate Dl, mean"
attr unit  ""
scalar SingleCell.ue[0].nic.mac 	harqErrorRate_1st_Ul:mean 	0
attr source  harqErrorRate_1st_Ul
attr title  "Harq Error Rate Dl, mean"
attr unit  ""
scalar SingleCell.ue[0].nic.mac 	harqErrorRateD2D:mean 	-nan
attr source  harqErrorRateD2D
attr title  "Harq Error Rate D2D, mean"
attr unit  ""
scalar SingleCell.ue[0].nic.mac 	harqErrorRateDl:mean 	0.00030269577294256
attr source  harqErrorRateDl
attr title  "Harq Error Rate Dl, mean"
attr unit  ""
scalar SingleCell.ue[0].nic.mac 	harqErrorRateUl:mean 	0
attr source  harqErrorRateUl
attr title  "Harq Error Rate Dl, mean"
attr unit  ""
scalar SingleCell.ue[0].nic.mac 	macPacketLossD2D:mean 	-nan
attr source  macPacketLossD2D
attr title  "Mac Packet Loss D2D, mean"
attr unit  ""
scalar SingleCell.ue[0].nic.mac 	macPacketLossDl:mean 	0
attr source  macPacketLossDl
attr title  "Mac Packet Loss, mean"
attr unit  ""
scalar SingleCell.ue[0].nic.mac 	macPacketLossUl:mean 	0
attr source  macPacketLossUl
attr title  "Mac Packet Loss, mean"
attr unit  ""
scalar SingleCell.ue[0].nic.mac 	macCellPacketLossD2D:mean 	-nan
attr source  macCellPacketLossD2D
attr title  "Mac Cell Packet Loss D2D, mean"
attr unit  ""
scalar SingleCell.ue[0].nic.mac 	macCellPacketLossUl:mean 	-nan
attr source  macCellPacketLossUl
attr title  "Mac Cell Packet Loss, mean"
attr unit  ""
scalar SingleCell.ue[0].nic.mac 	macCellPacketLossDl:mean 	-nan
attr source  macCellPacketLossDl
attr title  "Mac Cell Packet Loss, mean"
attr unit  ""
scalar SingleCell.ue[0].nic.mac 	macThroughputDl:lteRate 	723665.78613747
attr source  macThroughputDl
attr title  "Throughput at the MAC layer DL, lteRate"
attr unit  Bps
scalar SingleCell.ue[0].nic.mac 	macDelayDl:lteAvg 	0.0040018167245586
attr source  macDelayDl
attr title  "Delay at the MAC layer UL, lteAvg"
attr unit  s
scalar SingleCell.ue[0].nic.mac 	sentPacketToLowerLayer:count 	112686
attr interpolationmode  none
attr source  sentPacketToLowerLayer
scalar SingleCell.ue[0].nic.mac 	sentPacketToLowerLayer:sum(packetBytes) 	6070
attr interpolationmode  none
attr source  sentPacketToLowerLayer
scalar SingleCell.ue[0].nic.mac 	sentPacketToUpperLayer:count 	112986
attr interpolationmode  none
attr source  sentPacketToUpperLayer
scalar SingleCell.ue[0].nic.mac 	sentPacketToUpperLayer:sum(packetBytes) 	143051838
attr interpolationmode  none
attr source  sentPacketToUpperLayer
scalar SingleCell.ue[0].nic.mac 	receivedPacketFromLowerLayer:count 	265538
attr interpolationmode  none
attr source  receivedPacketFromLowerLayer
scalar SingleCell.ue[0].nic.mac 	receivedPacketFromLowerLayer:sum(packetBytes) 	143322871
attr interpolationmode  none
attr source  receivedPacketFromLowerLayer
scalar SingleCell.ue[0].nic.mac 	receivedPacketFromUpperLayer:count 	836
attr interpolationmode  none
attr source  receivedPacketFromUpperLayer
scalar SingleCell.ue[0].nic.mac 	receivedPacketFromUpperLayer:sum(packetBytes) 	10586
attr interpolationmode  none
attr source  receivedPacketFromUpperLayer
scalar SingleCell.ue[0].nic.mac 	averageCqiDl:lteAvg 	14.988204082723
attr source  averageCqiDl
attr title  "Average Cqi reported in DL, lteAvg"
attr unit  cqi
scalar SingleCell.ue[0].networkLayer.arp 	failedARPResolution:count 	0
attr title  "ARP failed resolutions, count"
scalar SingleCell.ue[0].networkLayer.arp 	completedARPResolution:count 	0
attr title  "ARP completed resolutions, count"
scalar SingleCell.ue[0].networkLayer.arp 	initiatedARPResolution:count 	0
attr title  "ARP initiated resolutions, count"
scalar SingleCell.ue[0].networkLayer.arp 	sentReply:count 	0
attr title  "ARP replies sent, count"
scalar SingleCell.ue[0].networkLayer.arp 	sentReq:count 	0
attr title  "ARP request sent, count"
statistic SingleCell.ue[1].udpApp[0] 	endToEndDelay:stats
field count 46
field mean 4.049347826087
field stddev 0.079255484883122
field sum 186.27
field sqrsum 754.554684
field min 4.006
field max 4.292
attr interpolationmode  none
attr source  segmentCompletionTime
attr title  "end-to-end delay, stats"
statistic SingleCell.ue[1].udpApp[1] 	endToEndDelay:stats
field count 44
field mean 4.0333409090909
field stddev 0.058192920204657
field sum 177.467
field sqrsum 715.930527
field min 4.006
field max 4.29
attr interpolationmode  none
attr source  segmentCompletionTime
attr title  "end-to-end delay, stats"
statistic SingleCell.ue[1].udpApp[2] 	endToEndDelay:stats
field count 42
field mean 4.0377380952381
field stddev 0.057181806557316
field sum 169.585
field sqrsum 684.873875
field min 4.005
field max 4.253
attr interpolationmode  none
attr source  segmentCompletionTime
attr title  "end-to-end delay, stats"
scalar SingleCell.ue[1].udp 	droppedPkBadChecksum:count 	0
attr interpolationmode  none
attr title  "packets dropped (checksum error), count"
scalar SingleCell.ue[1].udp 	droppedPkWrongPort:count 	0
attr interpolationmode  none
attr title  "packets dropped (wrong port), count"
scalar SingleCell.ue[1].udp 	passedUpPk:count 	133160
attr interpolationmode  none
attr title  "packets passed up, count"
scalar SingleCell.ue[1].udp 	rcvdPk:count 	133160
attr interpolationmode  none
attr source  rcvdPk
attr title  "packets received, count"
scalar SingleCell.ue[1].udp 	rcvdPk:sum(packetBytes) 	134225280
attr interpolationmode  none
attr source  rcvdPk
attr title  "packets received, sum(packetBytes)"
scalar SingleCell.ue[1].udp 	sentPk:count 	135
attr interpolationmode  none
attr source  sentPk
attr title  "packets sent, count"
scalar SingleCell.ue[1].udp 	sentPk:sum(packetBytes) 	2025
attr interpolationmode  none
attr source  sentPk
attr title  "packets sent, sum(packetBytes)"
scalar SingleCell.ue[1].nic.pdcpRrc 	sentPacketToLowerLayer:count 	135
attr interpolationmode  none
attr source  sentPacketToLowerLayer
scalar SingleCell.ue[1].nic.pdcpRrc 	sentPacketToLowerLayer:sum(packetBytes) 	4860
attr interpolationmode  none
attr source  sentPacketToLowerLayer
scalar SingleCell.ue[1].nic.pdcpRrc 	sentPacketToUpperLayer:count 	133160
attr interpolationmode  none
attr source  sentPacketToUpperLayer
scalar SingleCell.ue[1].nic.pdcpRrc 	sentPacketToUpperLayer:sum(packetBytes) 	136888480
attr interpolationmode  none
attr source  sentPacketToUpperLayer
scalar SingleCell.ue[1].nic.pdcpRrc 	receivedPacketFromLowerLayer:count 	133160
attr interpolationmode  none
attr source  receivedPacketFromLowerLayer
scalar SingleCell.ue[1].nic.pdcpRrc 	receivedPacketFromLowerLayer:sum(packetBytes) 	137021640
attr interpolationmode  none
attr source  receivedPacketFromLowerLayer
scalar SingleCell.ue[1].nic.pdcpRrc 	receivedPacketFromUpperLayer:count 	135
attr interpolationmode  none
attr source  receivedPacketFromUpperLayer
scalar SingleCell.ue[1].nic.pdcpRrc 	receivedPacketFromUpperLayer:sum(packetBytes) 	4725
attr interpolationmode  none
attr source  receivedPacketFromUpperLayer
scalar SingleCell.ue[1].nic.rlc.um 	rlcPduPacketLossDl:lteAvg 	0
attr source  rlcPduPacketLossDl
attr title  "rlc Packet Loss, lteAvg"
attr unit  ""
scalar SingleCell.ue[1].nic.rlc.um 	rlcPduPacketLossUl:lteAvg 	0
attr source  rlcPduPacketLossUl
attr title  "rlc Packet Loss, lteAvg"
attr unit  ""
scalar SingleCell.ue[1].nic.rlc.um 	rlcPacketLossTotal:lteAvg 	0.51011775255792
attr source  rlcPacketLossTotal
attr title  "rlc Packet Loss, lteAvg"
attr unit  ""
scalar SingleCell.ue[1].nic.rlc.um 	rlcPacketLossDl:lteAvg 	0.51037097230853
attr source  rlcPacketLossDl
attr title  "rlc Packet Loss, lteAvg"
attr unit  ""
scalar SingleCell.ue[1].nic.rlc.um 	rlcPacketLossUl:lteAvg 	0
attr source  rlcPacketLossUl
attr title  "rlc Packet Loss, lteAvg"
attr unit  ""
scalar SingleCell.ue[1].nic.rlc.um 	rlcPduThroughputUl:lteRate 	28.767181582195
attr source  rlcPduThroughputUl
attr title  "Throughput at the rlc layer UL, lteRate"
attr unit  Bps
scalar SingleCell.ue[1].nic.rlc.um 	rlcPduDelayUl:lteAvg 	0.0042919708029197
attr source  rlcPduDelayUl
attr title  "Delay at the rlc layer UL, lteAvg"
attr unit  s
scalar SingleCell.ue[1].nic.rlc.um 	rlcPduThroughputDl:lteRate 	730041.83267992
attr source  rlcPduThroughputDl
attr title  "Throughput at the rlc layer DL, lteRate"
attr unit  Bps
scalar SingleCell.ue[1].nic.rlc.um 	rlcPduDelayDl:lteAvg 	0.0040017163896815
attr source  rlcPduDelayDl
attr title  "Delay at the rlc layer UL, lteAvg"
attr unit  s
scalar SingleCell.ue[1].nic.rlc.um 	rlcThroughputUl:lteRate 	25.852163921869
attr source  rlcThroughputUl
attr title  "Throughput at the rlc layer UL, lteRate"
attr unit  Bps
scalar SingleCell.ue[1].nic.rlc.um 	rlcDelayUl:lteAvg 	0.03862962962963
attr source  rlcDelayUl
attr title  "Delay at the rlc layer UL, lteAvg"
attr unit  s
scalar SingleCell.ue[1].nic.rlc.um 	rlcThroughputDl:lteRate 	728888.91253119
attr source  rlcThroughputDl
attr title  "Throughput at the rlc layer DL, lteRate"
attr unit  Bps
scalar SingleCell.ue[1].nic.rlc.um 	rlcDelayDl:lteAvg 	0.0050011868422257
attr source  rlcDelayDl
attr title  "Delay at the rlc layer UL, lteAvg"
attr unit  s
scalar SingleCell.ue[1].nic.mac 	measuredItbs:mean 	-nan
attr source  measuredItbs
attr title  "TBS index, mean"
attr unit  ""
scalar SingleCell.ue[1].nic.mac 	harqErrorRate_4th_D2D:mean 	-nan
attr source  harqErrorRate_4th_D2D
attr title  "Harq Error Rate D2D, mean"
attr unit  ""
scalar SingleCell.ue[1].nic.mac 	harqErrorRate_4th_Dl:mean 	-nan
attr source  harqErrorRate_4th_Dl
attr title  "Harq Error Rate Dl, mean"
attr unit  ""
scalar SingleCell.ue[1].nic.mac 	harqErrorRate_4th_Ul:mean 	-nan
attr source  harqErrorRate_4th_Ul
attr title  "Harq Error Rate Dl, mean"
attr unit  ""
scalar SingleCell.ue[1].nic.mac 	harqErrorRate_3rd_D2D:mean 	-nan
attr source  harqErrorRate_3rd_D2D
attr title  "Harq Error Rate D2D, mean"
attr unit  ""
scalar SingleCell.ue[1].nic.mac 	harqErrorRate_3rd_Dl:mean 	-nan
attr source  harqErrorRate_3rd_Dl
attr title  "Harq Error Rate Dl, mean"
attr unit  ""
scalar SingleCell.ue[1].nic.mac 	harqErrorRate_3rd_Ul:mean 	0
attr source  harqErrorRate_3rd_Ul
attr title  "Harq Error Rate Dl, mean"
attr unit  ""
scalar SingleCell.ue[1].nic.mac 	harqErrorRate_2nd_D2D:mean 	-nan
attr source  harqErrorRate_2nd_D2D
attr title  "Harq Error Rate D2D, mean"
attr unit  ""
scalar SingleCell.ue[1].nic.mac 	harqErrorRate_2nd_Dl:mean 	0
attr source  harqErrorRate_2nd_Dl
attr title  "Harq Error Rate Dl, mean"
attr unit  ""
scalar SingleCell.ue[1].nic.mac 	harqErrorRate_2nd_Ul:mean 	0.090909090909091
attr source  harqErrorRate_2nd_Ul
attr title  "Harq Error Rate Dl, mean"
attr unit  ""
scalar SingleCell.ue[1].nic.mac 	harqErrorRate_1st_D2D:mean 	-nan
attr source  harqErrorRate_1st_D2D
attr title  "Harq Error Rate D2D, mean"
attr unit  ""
scalar SingleCell.ue[1].nic.mac 	harqErrorRate_1st_Dl:mean 	0.00028606758577414
attr source  harqErrorRate_1st_Dl
attr title  "Harq Error Rate Dl, mean"
attr unit  ""
scalar SingleCell.ue[1].nic.mac 	harqErrorRate_1st_Ul:mean 	0.011340206185567
attr source  harqErrorRate_1st_Ul
attr title  "Harq Error Rate Dl, mean"
attr unit  ""
scalar SingleCell.ue[1].nic.mac 	harqErrorRateD2D:mean 	-nan
attr source  harqErrorRateD2D
attr title  "Harq Error Rate D2D, mean"
attr unit  ""
scalar SingleCell.ue[1].nic.mac 	harqErrorRateDl:mean 	0.00028598577451405
attr source  harqErrorRateDl
attr title  "Harq Error Rate Dl, mean"
attr unit  ""
scalar SingleCell.ue[1].nic.mac 	harqErrorRateUl:mean 	0.012219959266802
attr source  harqErrorRateUl
attr title  "Harq Error Rate Dl, mean"
attr unit  ""
scalar SingleCell.ue[1].nic.mac 	macPacketLossD2D:mean 	-nan
attr source  macPacketLossD2D
attr title  "Mac Packet Loss D2D, mean"
attr unit  ""
scalar SingleCell.ue[1].nic.mac 	macPacketLossDl:mean 	0
attr source  macPacketLossDl
attr title  "Mac Packet Loss, mean"
attr unit  ""
scalar SingleCell.ue[1].nic.mac 	macPacketLossUl:mean 	0
attr source  macPacketLossUl
attr title  "Mac Packet Loss, mean"
attr unit  ""
scalar SingleCell.ue[1].nic.mac 	macCellPacketLossD2D:mean 	-nan
attr source  macCellPacketLossD2D
attr title  "Mac Cell Packet Loss D2D, mean"
attr unit  ""
scalar SingleCell.ue[1].nic.mac 	macCellPacketLossUl:mean 	-nan
attr source  macCellPacketLossUl
attr title  "Mac Cell Packet Loss, mean"
attr unit  ""
scalar SingleCell.ue[1].nic.mac 	macCellPacketLossDl:mean 	-nan
attr source  macCellPacketLossDl
attr title  "Mac Cell Packet Loss, mean"
attr unit  ""
scalar SingleCell.ue[1].nic.mac 	macThroughputDl:lteRate 	731194.75282865
attr source  macThroughputDl
attr title  "Throughput at the MAC layer DL, lteRate"
attr unit  Bps
scalar SingleCell.ue[1].nic.mac 	macDelayDl:lteAvg 	0.0040017163896815
attr source  macDelayDl
attr title  "Delay at the MAC layer UL, lteAvg"
attr unit  s
scalar SingleCell.ue[1].nic.mac 	sentPacketToLowerLayer:count 	110294
attr interpolationmode  none
attr source  sentPacketToLowerLayer
scalar SingleCell.ue[1].nic.mac 	sentPacketToLowerLayer:sum(packetBytes) 	7683
attr interpolationmode  none
attr source  sentPacketToLowerLayer
scalar SingleCell.ue[1].nic.mac 	sentPacketToUpperLayer:count 	109337
attr interpolationmode  none
attr source  sentPacketToUpperLayer
scalar SingleCell.ue[1].nic.mac 	sentPacketToUpperLayer:sum(packetBytes) 	137238374
attr interpolationmode  none
attr source  sentPacketToUpperLayer
scalar SingleCell.ue[1].nic.mac 	receivedPacketFromLowerLayer:count 	152435
attr interpolationmode  none
attr source  receivedPacketFromLowerLayer
scalar SingleCell.ue[1].nic.mac 	receivedPacketFromLowerLayer:sum(packetBytes) 	137502574
attr interpolationmode  none
attr source  receivedPacketFromLowerLayer
scalar SingleCell.ue[1].nic.mac 	receivedPacketFromUpperLayer:count 	1105
attr interpolationmode  none
attr source  receivedPacketFromUpperLayer
scalar SingleCell.ue[1].nic.mac 	receivedPacketFromUpperLayer:sum(packetBytes) 	10268
attr interpolationmode  none
attr source  receivedPacketFromUpperLayer
scalar SingleCell.ue[1].nic.mac 	averageCqiDl:lteAvg 	14.993579335793
attr source  averageCqiDl
attr title  "Average Cqi reported in DL, lteAvg"
attr unit  cqi
scalar SingleCell.ue[1].networkLayer.arp 	failedARPResolution:count 	0
attr title  "ARP failed resolutions, count"
scalar SingleCell.ue[1].networkLayer.arp 	completedARPResolution:count 	0
attr title  "ARP completed resolutions, count"
scalar SingleCell.ue[1].networkLayer.arp 	initiatedARPResolution:count 	0
attr title  "ARP initiated resolutions, count"
scalar SingleCell.ue[1].networkLayer.arp 	sentReply:count 	0
attr title  "ARP replies sent, count"
scalar SingleCell.ue[1].networkLayer.arp 	sentReq:count 	0
attr title  "ARP request sent, count"
